version 2
run Exp2DropTailWithPolicingAndShaping-0-20250330-01:11:38-15176
attr configname Exp2DropTailWithPolicingAndShaping
attr datetime 20250330-01:11:38
attr experiment Exp2DropTailWithPolicingAndShaping
attr inifile omnetpp.ini
attr iterationvars ""
attr iterationvarsf ""
attr measurement ""
attr network projectphase3
attr processid 15176
attr repetition 0
attr replication #0
attr resultdir results
attr runnumber 0
attr seedset 0
param **.ppp[*].ppp.queue.typename "\"DropTailQueue\""
param **.eth[*].mac.queue.typename "\"EtherQosQueue\""
param **.eth[*].mac.queue.dataQueue.typename "\"DropTailQueue\""
param **.queue.packetCapacity 100
param **.H?.numApps 3
param **.H1.app[0].typename "\"UdpBasicBurst\""
param **.H1.app[0].destAddresses "\"H2\""
param **.H1.app[0].chooseDestAddrMode "\"once\""
param **.H1.app[0].destPort 1000
param **.H1.app[0].startTime uniform(1s,2s)
param **.H1.app[0].stopTime 1200s
param **.H1.app[0].messageLength 172B
param **.H1.app[0].burstDuration exponential(0.352s)
param **.H1.app[0].sleepDuration exponential(0.650s)
param **.H1.app[0].sendInterval 20ms
param **.H2.app[0].typename "\"UdpBasicBurst\""
param **.H2.app[0].localPort 1000
param **.H2.app[0].delayLimit 0ms
param **.H2.app[0].destAddresses "\"\""
param **.H2.app[0].chooseDestAddrMode "\"once\""
param **.H2.app[0].destPort 0
param **.H2.app[0].messageLength 0B
param **.H2.app[0].burstDuration 0s
param **.H2.app[0].sleepDuration 0s
param **.H2.app[0].sendInterval 0ms
param **.H1.app[1].typename "\"UdpBasicApp\""
param **.H1.app[1].destPort 2000
param **.H1.app[1].startTime uniform(1s,2s)
param **.H1.app[1].stopTime 1200s
param **.H1.app[1].sendInterval 40ms
param **.H1.app[1].messageLength 500B
param **.H1.app[1].destAddresses "\"H2\""
param **.H2.app[1].typename "\"UdpSink\""
param **.H2.app[1].localPort 2000
param **.H1.app[2].typename "\"TcpBasicClientApp\""
param **.H1.app[2].connectAddress "\"H2\""
param **.H1.app[2].connectPort 3000
param **.H1.app[2].numRequestsPerSession 1
param **.H1.app[2].requestLength 50B
param **.H1.app[2].replyLength 100B
param **.H1.app[2].thinkTime 40ms
param **.H1.app[2].idleInterval 10s
param **.H1.app[2].stopTime 1200s
param **.H2.app[2].typename "\"TcpGenericServerApp\""
param **.H2.app[2].localPort 3000
param **.edgeDatarate 32kbps
param **.coreDatarate 16kbps
param **.R2.eth[?].ingressTC.typename "\"TC1\""
param **.R9.eth[?].ingressTC.typename "\"TC1\""
param **.ingressTC.numClasses 3
param **.ingressTC.classifier.filters "xmldoc(\"filters.xml\", \"//experiment[@id='default']\")"
param **.ingressTC.marker.dscps "\"AF11 AF21 AF31 AF41 BE\""
param **.R4.ppp[2].egressTC.typename "\"TrafficConditioner\""
param **.R4.ppp[2].egressTC.efMeter.cir "\"70%\""
param **.R4.ppp[2].egressTC.efMeter.cbs 50KiB
param **.R4.ppp[2].egressTC.defaultMeter.cir "\"30%\""
param **.R4.ppp[2].egressTC.defaultMeter.cbs 2KiB
param **.R4.ppp[2].egressTC.defaultMeter.ebs 4KiB
param **.R8.ppp[0].ingressTC.typename "\"TrafficConditioner\""
param **.R8.ppp[0].ingressTC.efMeter.cir "\"50%\""
param **.R8.ppp[0].ingressTC.efMeter.cbs 40KiB
param **.R8.ppp[0].ingressTC.defaultMeter.cir "\"25%\""
param **.R8.ppp[0].ingressTC.defaultMeter.cbs 2KiB
param **.R8.ppp[0].ingressTC.defaultMeter.ebs 4KiB
param **.queue.typename "\"EtherQosQueue\""
param **.queue.dataQueue.typename "\"DropTailQueue\""
param **.queue.packetCapacity 100
param **.queue.dataQueue.packetCapacity 100
param **.R*.hasOspf true
param **.R*.ospf.ospfConfig "xmldoc(\"OSPFConfig.xml\")"

scalar projectphase3.H1.ethg$o[0].channel packetsDiscarded:count 0
attr interpolationmode none
attr source constant1(messageDiscarded)
scalar projectphase3.H1.ethg$o[0].channel utilization:last 0.0013971866894814
attr source timeavg(channelBusy)
scalar projectphase3.H1.ethg$o[0].channel packets:count 52048
attr interpolationmode none
attr source constant1(messageSent)
scalar projectphase3.H1.ethg$o[0].channel packetBytes:sum 21581608
attr interpolationmode none
attr source packetBytes(messageSent)
attr unit B
scalar projectphase3.H1.ethg$o[0].channel throughput:last 139718.6699974
attr source sumPerDuration(packetBits(messageSent))
attr unit bps
scalar projectphase3.H2.ethg$o[0].channel packetsDiscarded:count 0
attr interpolationmode none
attr source constant1(messageDiscarded)
scalar projectphase3.H2.ethg$o[0].channel utilization:last 1.4124700737397e-07
attr source timeavg(channelBusy)
scalar projectphase3.H2.ethg$o[0].channel packets:count 29
attr interpolationmode none
attr source constant1(messageSent)
scalar projectphase3.H2.ethg$o[0].channel packetBytes:sum 2182
attr interpolationmode none
attr source packetBytes(messageSent)
attr unit B
scalar projectphase3.H2.ethg$o[0].channel throughput:last 14.124700803229
attr source sumPerDuration(packetBits(messageSent))
attr unit bps
scalar projectphase3.R1.pppg$o[0].channel packetsDiscarded:count 0
attr interpolationmode none
attr source constant1(messageDiscarded)
scalar projectphase3.R1.pppg$o[0].channel utilization:last 0.15334188218708
attr source timeavg(channelBusy)
scalar projectphase3.R1.pppg$o[0].channel packets:count 1962
attr interpolationmode none
attr source constant1(messageSent)
scalar projectphase3.R1.pppg$o[0].channel packetBytes:sum 760654
attr interpolationmode none
attr source packetBytes(messageSent)
attr unit B
scalar projectphase3.R1.pppg$o[0].channel throughput:last 4907.0144211591
attr source sumPerDuration(packetBits(messageSent))
attr unit bps
scalar projectphase3.R1.pppg$o[1].channel packetsDiscarded:count 0
attr interpolationmode none
attr source constant1(messageDiscarded)
scalar projectphase3.R1.pppg$o[1].channel utilization:last 0.32640994819082
attr source timeavg(channelBusy)
scalar projectphase3.R1.pppg$o[1].channel packets:count 2226
attr interpolationmode none
attr source constant1(messageSent)
scalar projectphase3.R1.pppg$o[1].channel packetBytes:sum 809592
attr interpolationmode none
attr source packetBytes(messageSent)
attr unit B
scalar projectphase3.R1.pppg$o[1].channel throughput:last 5222.7170975289
attr source sumPerDuration(packetBits(messageSent))
attr unit bps
scalar projectphase3.R2.pppg$o[0].channel packetsDiscarded:count 0
attr interpolationmode none
attr source constant1(messageDiscarded)
scalar projectphase3.R2.pppg$o[0].channel utilization:last 0.3115163056613
attr source timeavg(channelBusy)
scalar projectphase3.R2.pppg$o[0].channel packets:count 4021
attr interpolationmode none
attr source constant1(messageSent)
scalar projectphase3.R2.pppg$o[0].channel packetBytes:sum 1551513
attr interpolationmode none
attr source packetBytes(messageSent)
attr unit B
scalar projectphase3.R2.pppg$o[0].channel throughput:last 9968.6318650118
attr source sumPerDuration(packetBits(messageSent))
attr unit bps
scalar projectphase3.R2.pppg$o[1].channel packetsDiscarded:count 0
attr interpolationmode none
attr source constant1(messageDiscarded)
scalar projectphase3.R2.pppg$o[1].channel utilization:last 0.97513065073983
attr source timeavg(channelBusy)
scalar projectphase3.R2.pppg$o[1].channel packets:count 11174
attr interpolationmode none
attr source constant1(messageSent)
scalar projectphase3.R2.pppg$o[1].channel packetBytes:sum 4837082
attr interpolationmode none
attr source packetBytes(messageSent)
attr unit B
scalar projectphase3.R2.pppg$o[1].channel throughput:last 31204.652625891
attr source sumPerDuration(packetBits(messageSent))
attr unit bps
scalar projectphase3.R2.ethg$o[0].channel packetsDiscarded:count 0
attr interpolationmode none
attr source constant1(messageDiscarded)
scalar projectphase3.R2.ethg$o[0].channel utilization:last 8.6651828685564e-07
attr source timeavg(channelBusy)
scalar projectphase3.R2.ethg$o[0].channel packets:count 154
attr interpolationmode none
attr source constant1(messageSent)
scalar projectphase3.R2.ethg$o[0].channel packetBytes:sum 13432
attr interpolationmode none
attr source packetBytes(messageSent)
attr unit B
scalar projectphase3.R2.ethg$o[0].channel throughput:last 86.651829188667
attr source sumPerDuration(packetBits(messageSent))
attr unit bps
scalar projectphase3.R3.pppg$o[0].channel packetsDiscarded:count 0
attr interpolationmode none
attr source constant1(messageDiscarded)
scalar projectphase3.R3.pppg$o[0].channel utilization:last 0.009349390301431
attr source timeavg(channelBusy)
scalar projectphase3.R3.pppg$o[0].channel packets:count 251
attr interpolationmode none
attr source constant1(messageSent)
scalar projectphase3.R3.pppg$o[0].channel packetBytes:sum 23189
attr interpolationmode none
attr source packetBytes(messageSent)
attr unit B
scalar projectphase3.R3.pppg$o[0].channel throughput:last 149.59476836814
attr source sumPerDuration(packetBits(messageSent))
attr unit bps
scalar projectphase3.R3.pppg$o[1].channel packetsDiscarded:count 0
attr interpolationmode none
attr source constant1(messageDiscarded)
scalar projectphase3.R3.pppg$o[1].channel utilization:last 0.16305033496931
attr source timeavg(channelBusy)
scalar projectphase3.R3.pppg$o[1].channel packets:count 2218
attr interpolationmode none
attr source constant1(messageSent)
scalar projectphase3.R3.pppg$o[1].channel packetBytes:sum 808820
attr interpolationmode none
attr source packetBytes(messageSent)
attr unit B
scalar projectphase3.R3.pppg$o[1].channel throughput:last 5217.6896067222
attr source sumPerDuration(packetBits(messageSent))
attr unit bps
scalar projectphase3.R4.pppg$o[0].channel packetsDiscarded:count 0
attr interpolationmode none
attr source constant1(messageDiscarded)
scalar projectphase3.R4.pppg$o[0].channel utilization:last 0.0054216741787679
attr source timeavg(channelBusy)
scalar projectphase3.R4.pppg$o[0].channel packets:count 314
attr interpolationmode none
attr source constant1(messageSent)
scalar projectphase3.R4.pppg$o[0].channel packetBytes:sum 26894
attr interpolationmode none
attr source packetBytes(messageSent)
attr unit B
scalar projectphase3.R4.pppg$o[0].channel throughput:last 173.49619690748
attr source sumPerDuration(packetBits(messageSent))
attr unit bps
scalar projectphase3.R4.pppg$o[1].channel packetsDiscarded:count 0
attr interpolationmode none
attr source constant1(messageDiscarded)
scalar projectphase3.R4.pppg$o[1].channel utilization:last 0.0042242254101803
attr source timeavg(channelBusy)
scalar projectphase3.R4.pppg$o[1].channel packets:count 214
attr interpolationmode none
attr source constant1(messageSent)
scalar projectphase3.R4.pppg$o[1].channel packetBytes:sum 20954
attr interpolationmode none
attr source packetBytes(messageSent)
attr unit B
scalar projectphase3.R4.pppg$o[1].channel throughput:last 135.17725695703
attr source sumPerDuration(packetBits(messageSent))
attr unit bps
scalar projectphase3.R4.pppg$o[2].channel packetsDiscarded:count 0
attr interpolationmode none
attr source constant1(messageDiscarded)
scalar projectphase3.R4.pppg$o[2].channel utilization:last 0.3006431619961
attr source timeavg(channelBusy)
scalar projectphase3.R4.pppg$o[2].channel packets:count 4553
attr interpolationmode none
attr source constant1(messageSent)
scalar projectphase3.R4.pppg$o[2].channel packetBytes:sum 1491341
attr interpolationmode none
attr source packetBytes(messageSent)
attr unit B
scalar projectphase3.R4.pppg$o[2].channel throughput:last 9620.7266438504
attr source sumPerDuration(packetBits(messageSent))
attr unit bps
scalar projectphase3.R5.pppg$o[0].channel packetsDiscarded:count 0
attr interpolationmode none
attr source constant1(messageDiscarded)
scalar projectphase3.R5.pppg$o[0].channel utilization:last 0.0054134792075425
attr source timeavg(channelBusy)
scalar projectphase3.R5.pppg$o[0].channel packets:count 389
attr interpolationmode none
attr source constant1(messageSent)
scalar projectphase3.R5.pppg$o[0].channel packetBytes:sum 26963
attr interpolationmode none
attr source packetBytes(messageSent)
attr unit B
scalar projectphase3.R5.pppg$o[0].channel throughput:last 173.2332475851
attr source sumPerDuration(packetBits(messageSent))
attr unit bps
scalar projectphase3.R5.pppg$o[1].channel packetsDiscarded:count 0
attr interpolationmode none
attr source constant1(messageDiscarded)
scalar projectphase3.R5.pppg$o[1].channel utilization:last 0.0042665617351245
attr source timeavg(channelBusy)
scalar projectphase3.R5.pppg$o[1].channel packets:count 212
attr interpolationmode none
attr source constant1(messageSent)
scalar projectphase3.R5.pppg$o[1].channel packetBytes:sum 21164
attr interpolationmode none
attr source packetBytes(messageSent)
attr unit B
scalar projectphase3.R5.pppg$o[1].channel throughput:last 136.53203983972
attr source sumPerDuration(packetBits(messageSent))
attr unit bps
scalar projectphase3.R5.pppg$o[2].channel packetsDiscarded:count 0
attr interpolationmode none
attr source constant1(messageDiscarded)
scalar projectphase3.R5.pppg$o[2].channel utilization:last 0.30103324124813
attr source timeavg(channelBusy)
scalar projectphase3.R5.pppg$o[2].channel packets:count 4572
attr interpolationmode none
attr source constant1(messageSent)
scalar projectphase3.R5.pppg$o[2].channel packetBytes:sum 1493282
attr interpolationmode none
attr source packetBytes(messageSent)
attr unit B
scalar projectphase3.R5.pppg$o[2].channel throughput:last 9633.2093680607
attr source sumPerDuration(packetBits(messageSent))
attr unit bps
scalar projectphase3.R6.pppg$o[0].channel packetsDiscarded:count 0
attr interpolationmode none
attr source constant1(messageDiscarded)
scalar projectphase3.R6.pppg$o[0].channel utilization:last 0.0034129851181782
attr source timeavg(channelBusy)
scalar projectphase3.R6.pppg$o[0].channel packets:count 210
attr interpolationmode none
attr source constant1(messageSent)
scalar projectphase3.R6.pppg$o[0].channel packetBytes:sum 16930
attr interpolationmode none
attr source packetBytes(messageSent)
attr unit B
scalar projectphase3.R6.pppg$o[0].channel throughput:last 109.21717509561
attr source sumPerDuration(packetBits(messageSent))
attr unit bps
scalar projectphase3.R6.pppg$o[1].channel packetsDiscarded:count 0
attr interpolationmode none
attr source constant1(messageDiscarded)
scalar projectphase3.R6.pppg$o[1].channel utilization:last 0.0043167325747479
attr source timeavg(channelBusy)
scalar projectphase3.R6.pppg$o[1].channel packets:count 215
attr interpolationmode none
attr source constant1(messageSent)
scalar projectphase3.R6.pppg$o[1].channel packetBytes:sum 21413
attr interpolationmode none
attr source packetBytes(messageSent)
attr unit B
scalar projectphase3.R6.pppg$o[1].channel throughput:last 138.13753096936
attr source sumPerDuration(packetBits(messageSent))
attr unit bps
scalar projectphase3.R6.pppg$o[2].channel packetsDiscarded:count 0
attr interpolationmode none
attr source constant1(messageDiscarded)
scalar projectphase3.R6.pppg$o[2].channel utilization:last 0.3020173777105
attr source timeavg(channelBusy)
scalar projectphase3.R6.pppg$o[2].channel packets:count 4634
attr interpolationmode none
attr source constant1(messageSent)
scalar projectphase3.R6.pppg$o[2].channel packetBytes:sum 1498148
attr interpolationmode none
attr source packetBytes(messageSent)
attr unit B
scalar projectphase3.R6.pppg$o[2].channel throughput:last 9664.7022125529
attr source sumPerDuration(packetBits(messageSent))
attr unit bps
scalar projectphase3.R7.pppg$o[0].channel packetsDiscarded:count 0
attr interpolationmode none
attr source constant1(messageDiscarded)
scalar projectphase3.R7.pppg$o[0].channel utilization:last 0.002954713930064
attr source timeavg(channelBusy)
scalar projectphase3.R7.pppg$o[0].channel packets:count 187
attr interpolationmode none
attr source constant1(messageSent)
scalar projectphase3.R7.pppg$o[0].channel packetBytes:sum 14657
attr interpolationmode none
attr source packetBytes(messageSent)
attr unit B
scalar projectphase3.R7.pppg$o[0].channel throughput:last 94.552275326038
attr source sumPerDuration(packetBits(messageSent))
attr unit bps
scalar projectphase3.R7.pppg$o[1].channel packetsDiscarded:count 0
attr interpolationmode none
attr source constant1(messageDiscarded)
scalar projectphase3.R7.pppg$o[1].channel utilization:last 0.0098052770966698
attr source timeavg(channelBusy)
scalar projectphase3.R7.pppg$o[1].channel packets:count 264
attr interpolationmode none
attr source constant1(messageSent)
scalar projectphase3.R7.pppg$o[1].channel packetBytes:sum 24320
attr interpolationmode none
attr source packetBytes(messageSent)
attr unit B
scalar projectphase3.R7.pppg$o[1].channel throughput:last 156.88917761084
attr source sumPerDuration(packetBits(messageSent))
attr unit bps
scalar projectphase3.R12.pppg$o[0].channel packetsDiscarded:count 0
attr interpolationmode none
attr source constant1(messageDiscarded)
scalar projectphase3.R12.pppg$o[0].channel utilization:last 0.0096972035975771
attr source timeavg(channelBusy)
scalar projectphase3.R12.pppg$o[0].channel packets:count 264
attr interpolationmode none
attr source constant1(messageSent)
scalar projectphase3.R12.pppg$o[0].channel packetBytes:sum 24052
attr interpolationmode none
attr source packetBytes(messageSent)
attr unit B
scalar projectphase3.R12.pppg$o[0].channel throughput:last 155.1599493258
attr source sumPerDuration(packetBits(messageSent))
attr unit bps
scalar projectphase3.R12.pppg$o[1].channel packetsDiscarded:count 0
attr interpolationmode none
attr source constant1(messageDiscarded)
scalar projectphase3.R12.pppg$o[1].channel utilization:last 0.0030046172433097
attr source timeavg(channelBusy)
scalar projectphase3.R12.pppg$o[1].channel packets:count 188
attr interpolationmode none
attr source constant1(messageSent)
scalar projectphase3.R12.pppg$o[1].channel packetBytes:sum 14904
attr interpolationmode none
attr source packetBytes(messageSent)
attr unit B
scalar projectphase3.R12.pppg$o[1].channel throughput:last 96.14920554779
attr source sumPerDuration(packetBits(messageSent))
attr unit bps
scalar projectphase3.R8.pppg$o[0].channel packetsDiscarded:count 0
attr interpolationmode none
attr source constant1(messageDiscarded)
scalar projectphase3.R8.pppg$o[0].channel utilization:last 0.0032289099791859
attr source timeavg(channelBusy)
scalar projectphase3.R8.pppg$o[0].channel packets:count 203
attr interpolationmode none
attr source constant1(messageSent)
scalar projectphase3.R8.pppg$o[0].channel packetBytes:sum 16017
attr interpolationmode none
attr source packetBytes(messageSent)
attr unit B
scalar projectphase3.R8.pppg$o[0].channel throughput:last 103.32668157666
attr source sumPerDuration(packetBits(messageSent))
attr unit bps
scalar projectphase3.R8.pppg$o[1].channel packetsDiscarded:count 0
attr interpolationmode none
attr source constant1(messageDiscarded)
scalar projectphase3.R8.pppg$o[1].channel utilization:last 0.0040345285616983
attr source timeavg(channelBusy)
scalar projectphase3.R8.pppg$o[1].channel packets:count 203
attr interpolationmode none
attr source constant1(messageSent)
scalar projectphase3.R8.pppg$o[1].channel packetBytes:sum 20013
attr interpolationmode none
attr source packetBytes(messageSent)
attr unit B
scalar projectphase3.R8.pppg$o[1].channel throughput:last 129.10686602553
attr source sumPerDuration(packetBits(messageSent))
attr unit bps
scalar projectphase3.R8.pppg$o[2].channel packetsDiscarded:count 0
attr interpolationmode none
attr source constant1(messageDiscarded)
scalar projectphase3.R8.pppg$o[2].channel utilization:last 0.25061844775431
attr source timeavg(channelBusy)
scalar projectphase3.R8.pppg$o[2].channel packets:count 3711
attr interpolationmode none
attr source constant1(messageSent)
scalar projectphase3.R8.pppg$o[2].channel packetBytes:sum 1243179
attr interpolationmode none
attr source packetBytes(messageSent)
attr unit B
scalar projectphase3.R8.pppg$o[2].channel throughput:last 8019.9115860857
attr source sumPerDuration(packetBits(messageSent))
attr unit bps
scalar projectphase3.R9.pppg$o[0].channel packetsDiscarded:count 0
attr interpolationmode none
attr source constant1(messageDiscarded)
scalar projectphase3.R9.pppg$o[0].channel utilization:last 0.0040121187535244
attr source timeavg(channelBusy)
scalar projectphase3.R9.pppg$o[0].channel packets:count 206
attr interpolationmode none
attr source constant1(messageSent)
scalar projectphase3.R9.pppg$o[0].channel packetBytes:sum 19902
attr interpolationmode none
attr source packetBytes(messageSent)
attr unit B
scalar projectphase3.R9.pppg$o[0].channel throughput:last 128.38974130546
attr source sumPerDuration(packetBits(messageSent))
attr unit bps
scalar projectphase3.R9.pppg$o[1].channel packetsDiscarded:count 0
attr interpolationmode none
attr source constant1(messageDiscarded)
scalar projectphase3.R9.pppg$o[1].channel utilization:last 0.0033259245237947
attr source timeavg(channelBusy)
scalar projectphase3.R9.pppg$o[1].channel packets:count 222
attr interpolationmode none
attr source constant1(messageSent)
scalar projectphase3.R9.pppg$o[1].channel packetBytes:sum 16498
attr interpolationmode none
attr source packetBytes(messageSent)
attr unit B
scalar projectphase3.R9.pppg$o[1].channel throughput:last 106.43119396611
attr source sumPerDuration(packetBits(messageSent))
attr unit bps
scalar projectphase3.R9.ethg$o[0].channel packetsDiscarded:count 0
attr interpolationmode none
attr source constant1(messageDiscarded)
scalar projectphase3.R9.ethg$o[0].channel utilization:last 8.40129456697e-05
attr source timeavg(channelBusy)
scalar projectphase3.R9.ethg$o[0].channel packets:count 3646
attr interpolationmode none
attr source constant1(messageSent)
scalar projectphase3.R9.ethg$o[0].channel packetBytes:sum 1302300
attr interpolationmode none
attr source packetBytes(messageSent)
attr unit B
scalar projectphase3.R9.ethg$o[0].channel throughput:last 8401.2946157479
attr source sumPerDuration(packetBits(messageSent))
attr unit bps
scalar projectphase3.R10.pppg$o[0].channel packetsDiscarded:count 0
attr interpolationmode none
attr source constant1(messageDiscarded)
scalar projectphase3.R10.pppg$o[0].channel utilization:last 0.0028227105874707
attr source timeavg(channelBusy)
scalar projectphase3.R10.pppg$o[0].channel packets:count 182
attr interpolationmode none
attr source constant1(messageSent)
scalar projectphase3.R10.pppg$o[0].channel packetBytes:sum 14002
attr interpolationmode none
attr source packetBytes(messageSent)
attr unit B
scalar projectphase3.R10.pppg$o[0].channel throughput:last 90.328104515195
attr source sumPerDuration(packetBits(messageSent))
attr unit bps
scalar projectphase3.R10.pppg$o[1].channel packetsDiscarded:count 0
attr interpolationmode none
attr source constant1(messageDiscarded)
scalar projectphase3.R10.pppg$o[1].channel utilization:last 0.0089735325717459
attr source timeavg(channelBusy)
scalar projectphase3.R10.pppg$o[1].channel packets:count 243
attr interpolationmode none
attr source constant1(messageSent)
scalar projectphase3.R10.pppg$o[1].channel packetBytes:sum 22257
attr interpolationmode none
attr source packetBytes(messageSent)
attr unit B
scalar projectphase3.R10.pppg$o[1].channel throughput:last 143.58086279623
attr source sumPerDuration(packetBits(messageSent))
attr unit bps
scalar projectphase3.R11.pppg$o[0].channel packetsDiscarded:count 0
attr interpolationmode none
attr source constant1(messageDiscarded)
scalar projectphase3.R11.pppg$o[0].channel utilization:last 0.0087188630274906
attr source timeavg(channelBusy)
scalar projectphase3.R11.pppg$o[0].channel packets:count 243
attr interpolationmode none
attr source constant1(messageSent)
scalar projectphase3.R11.pppg$o[0].channel packetBytes:sum 21625
attr interpolationmode none
attr source packetBytes(messageSent)
attr unit B
scalar projectphase3.R11.pppg$o[0].channel throughput:last 139.50602693907
attr source sumPerDuration(packetBits(messageSent))
attr unit bps
scalar projectphase3.R11.pppg$o[1].channel packetsDiscarded:count 0
attr interpolationmode none
attr source constant1(messageDiscarded)
scalar projectphase3.R11.pppg$o[1].channel utilization:last 0.0030265172265633
attr source timeavg(channelBusy)
scalar projectphase3.R11.pppg$o[1].channel packets:count 187
attr interpolationmode none
attr source constant1(messageSent)
scalar projectphase3.R11.pppg$o[1].channel packetBytes:sum 15013
attr interpolationmode none
attr source packetBytes(messageSent)
attr unit B
scalar projectphase3.R11.pppg$o[1].channel throughput:last 96.850015572148
attr source sumPerDuration(packetBits(messageSent))
attr unit bps
scalar projectphase3.H1.lo[0].lo rcvdPkFromHl:count 0
attr interpolationmode none
attr source packetReceivedFromUpper
attr title "packets received from higher layer, count"
scalar projectphase3.H1.lo[0].lo rcvdPkFromHl:sum(packetBytes) 0
attr interpolationmode none
attr source packetReceivedFromUpper
attr title "packets received from higher layer, sum(packetBytes)"
scalar projectphase3.H1.lo[0].lo passedUpPk:count 0
attr interpolationmode none
attr source packetSentToUpper
attr title "packets passed to higher layer, count"
scalar projectphase3.H1.lo[0].lo passedUpPk:sum(packetBytes) 0
attr interpolationmode none
attr source packetSentToUpper
attr title "packets passed to higher layer, sum(packetBytes)"
scalar projectphase3.H1.eth[0].mac.queue.classifier packetPushed:count 52048
attr interpolationmode none
attr title "packets pushed, count"
scalar projectphase3.H1.eth[0].mac.queue.classifier packetPushed:sum(packetBytes) 21165224
attr interpolationmode none
attr title "packets pushed, sum(packetBytes)"
scalar projectphase3.H1.eth[0].mac.queue.classifier packetDropped:count 0
attr interpolationmode none
attr title "packets dropped, count"
scalar projectphase3.H1.eth[0].mac.queue.classifier packetDropped:sum(packetBytes) 0
attr interpolationmode none
attr title "packets dropped, sum(packetBytes)"
scalar projectphase3.H1.eth[0].mac.queue.pauseQueue packetPopped:count 0
attr interpolationmode none
attr title "packet popped, count"
scalar projectphase3.H1.eth[0].mac.queue.pauseQueue packetPopped:sum(packetBytes) 0
attr interpolationmode none
attr title "packet popped, sum(packetBytes)"
statistic projectphase3.H1.eth[0].mac.queue.pauseQueue queueingTime:histogram
field count 0
field mean nan
field stddev nan
field min nan
field max nan
field sum 0
field sqrsum 0
attr interpolationmode none
attr source queueingTime(packetPopped)
attr title "queueing times, histogram"
attr unit s
bin	-inf	0
bin	0	0
bin	1	0
scalar projectphase3.H1.eth[0].mac.queue.pauseQueue queueLength:max nan
attr interpolationmode sample-hold
attr source "count(packetPushed) - count(packetPopped) - count(packetRemoved) - count(packetDropped)"
attr title "queue length, max"
scalar projectphase3.H1.eth[0].mac.queue.pauseQueue queueLength:timeavg nan
attr interpolationmode sample-hold
attr source "count(packetPushed) - count(packetPopped) - count(packetRemoved) - count(packetDropped)"
attr title "queue length, timeavg"
scalar projectphase3.H1.eth[0].mac.queue.pauseQueue packetPushed:count 0
attr interpolationmode none
attr title "packet pushed, count"
scalar projectphase3.H1.eth[0].mac.queue.pauseQueue packetPushed:sum(packetBytes) 0
attr interpolationmode none
attr title "packet pushed, sum(packetBytes)"
scalar projectphase3.H1.eth[0].mac.queue.pauseQueue packetDropQueueOverflow:count 0
attr interpolationmode none
attr source packetDropReasonIsQueueOverflow(packetDropped)
attr title "packet drops: queue overflow, count"
scalar projectphase3.H1.eth[0].mac.queue.pauseQueue packetDropQueueOverflow:sum(packetBytes) 0
attr interpolationmode none
attr source packetDropReasonIsQueueOverflow(packetDropped)
attr title "packet drops: queue overflow, sum(packetBytes)"
scalar projectphase3.H1.eth[0].mac.queue.pauseQueue packetRemoved:count 0
attr interpolationmode none
attr title "packets removed, count"
scalar projectphase3.H1.eth[0].mac.queue.pauseQueue packetRemoved:sum(packetBytes) 0
attr interpolationmode none
attr title "packets removed, sum(packetBytes)"
scalar projectphase3.H1.eth[0].mac.queue.dataQueue packetPopped:count 52048
attr interpolationmode none
attr title "packet popped, count"
scalar projectphase3.H1.eth[0].mac.queue.dataQueue packetPopped:sum(packetBytes) 21165224
attr interpolationmode none
attr title "packet popped, sum(packetBytes)"
statistic projectphase3.H1.eth[0].mac.queue.dataQueue queueingTime:histogram
field count 52048
field mean 4.6474213034122e-09
field stddev 2.2174410531008e-07
field min 0
field max 1.5926908e-05
field sum 0.000241888984
field sqrsum 2.5602984795526e-09
attr interpolationmode none
attr source queueingTime(packetPopped)
attr title "queueing times, histogram"
attr unit s
bin	-inf	0
bin	0	52020
bin	2e-07	0
bin	4e-07	0
bin	6e-07	0
bin	8e-07	0
bin	1e-06	0
bin	1.2e-06	0
bin	1.4e-06	0
bin	1.6e-06	0
bin	1.8e-06	0
bin	2e-06	0
bin	2.2e-06	0
bin	2.4e-06	0
bin	2.6e-06	0
bin	2.8e-06	0
bin	3e-06	0
bin	3.2e-06	0
bin	3.4e-06	0
bin	3.6e-06	0
bin	3.8e-06	0
bin	4e-06	0
bin	4.2e-06	0
bin	4.4e-06	10
bin	4.6e-06	0
bin	4.8e-06	0
bin	5e-06	0
bin	5.2e-06	0
bin	5.4e-06	0
bin	5.6e-06	0
bin	5.8e-06	0
bin	6e-06	0
bin	6.2e-06	0
bin	6.4e-06	0
bin	6.6e-06	4
bin	6.8e-06	0
bin	7e-06	0
bin	7.2e-06	0
bin	7.4e-06	0
bin	7.6e-06	0
bin	7.8e-06	0
bin	8e-06	0
bin	8.2e-06	0
bin	8.4e-06	0
bin	8.6e-06	0
bin	8.8e-06	0
bin	9e-06	0
bin	9.2e-06	0
bin	9.4e-06	0
bin	9.6e-06	0
bin	9.8e-06	4
bin	1e-05	0
bin	1.02e-05	5
bin	1.04e-05	0
bin	1.06e-05	0
bin	1.08e-05	0
bin	1.1e-05	0
bin	1.12e-05	0
bin	1.14e-05	0
bin	1.16e-05	0
bin	1.18e-05	0
bin	1.2e-05	0
bin	1.22e-05	0
bin	1.24e-05	0
bin	1.26e-05	0
bin	1.28e-05	0
bin	1.3e-05	0
bin	1.32e-05	0
bin	1.34e-05	0
bin	1.36e-05	0
bin	1.38e-05	0
bin	1.4e-05	0
bin	1.42e-05	0
bin	1.44e-05	0
bin	1.46e-05	0
bin	1.48e-05	0
bin	1.5e-05	0
bin	1.52e-05	0
bin	1.54e-05	0
bin	1.56e-05	0
bin	1.58e-05	5
bin	1.6e-05	0
scalar projectphase3.H1.eth[0].mac.queue.dataQueue queueLength:max 1
attr interpolationmode sample-hold
attr source "count(packetPushed) - count(packetPopped) - count(packetRemoved) - count(packetDropped)"
attr title "queue length, max"
scalar projectphase3.H1.eth[0].mac.queue.dataQueue queueLength:timeavg 1.9366612009608e-07
attr interpolationmode sample-hold
attr source "count(packetPushed) - count(packetPopped) - count(packetRemoved) - count(packetDropped)"
attr title "queue length, timeavg"
scalar projectphase3.H1.eth[0].mac.queue.dataQueue packetPushed:count 52048
attr interpolationmode none
attr title "packet pushed, count"
scalar projectphase3.H1.eth[0].mac.queue.dataQueue packetPushed:sum(packetBytes) 21165224
attr interpolationmode none
attr title "packet pushed, sum(packetBytes)"
scalar projectphase3.H1.eth[0].mac.queue.dataQueue packetDropQueueOverflow:count 0
attr interpolationmode none
attr source packetDropReasonIsQueueOverflow(packetDropped)
attr title "packet drops: queue overflow, count"
scalar projectphase3.H1.eth[0].mac.queue.dataQueue packetDropQueueOverflow:sum(packetBytes) 0
attr interpolationmode none
attr source packetDropReasonIsQueueOverflow(packetDropped)
attr title "packet drops: queue overflow, sum(packetBytes)"
scalar projectphase3.H1.eth[0].mac.queue.dataQueue packetRemoved:count 0
attr interpolationmode none
attr title "packets removed, count"
scalar projectphase3.H1.eth[0].mac.queue.dataQueue packetRemoved:sum(packetBytes) 0
attr interpolationmode none
attr title "packets removed, sum(packetBytes)"
scalar projectphase3.H1.eth[0].mac.queue.scheduler packetPopped:count 52048
attr interpolationmode none
attr title "packets popped, count"
scalar projectphase3.H1.eth[0].mac.queue.scheduler packetPopped:sum(packetBytes) 21165224
attr interpolationmode none
attr title "packets popped, sum(packetBytes)"
scalar projectphase3.H1.eth[0].mac.queue packetPopped:count 52048
attr interpolationmode none
attr source localSignal(packetPopped)
attr title "packets popped, count"
scalar projectphase3.H1.eth[0].mac.queue packetPopped:sum(packetBytes) 21165224
attr interpolationmode none
attr source localSignal(packetPopped)
attr title "packets popped, sum(packetBytes)"
statistic projectphase3.H1.eth[0].mac.queue queueingTime:histogram
field count 156144
field mean 4.6474213034122e-09
field stddev 2.2174268517075e-07
field min 0
field max 1.5926908e-05
field sum 0.000725666952
field sqrsum 7.6808954386578e-09
attr interpolationmode none
attr source queueingTime(packetPopped)
attr title "queueing times, histogram"
attr unit s
bin	-inf	0
bin	0	156060
bin	2e-07	0
bin	4e-07	0
bin	6e-07	0
bin	8e-07	0
bin	1e-06	0
bin	1.2e-06	0
bin	1.4e-06	0
bin	1.6e-06	0
bin	1.8e-06	0
bin	2e-06	0
bin	2.2e-06	0
bin	2.4e-06	0
bin	2.6e-06	0
bin	2.8e-06	0
bin	3e-06	0
bin	3.2e-06	0
bin	3.4e-06	0
bin	3.6e-06	0
bin	3.8e-06	0
bin	4e-06	0
bin	4.2e-06	0
bin	4.4e-06	30
bin	4.6e-06	0
bin	4.8e-06	0
bin	5e-06	0
bin	5.2e-06	0
bin	5.4e-06	0
bin	5.6e-06	0
bin	5.8e-06	0
bin	6e-06	0
bin	6.2e-06	0
bin	6.4e-06	0
bin	6.6e-06	12
bin	6.8e-06	0
bin	7e-06	0
bin	7.2e-06	0
bin	7.4e-06	0
bin	7.6e-06	0
bin	7.8e-06	0
bin	8e-06	0
bin	8.2e-06	0
bin	8.4e-06	0
bin	8.6e-06	0
bin	8.8e-06	0
bin	9e-06	0
bin	9.2e-06	0
bin	9.4e-06	0
bin	9.6e-06	0
bin	9.8e-06	12
bin	1e-05	0
bin	1.02e-05	15
bin	1.04e-05	0
bin	1.06e-05	0
bin	1.08e-05	0
bin	1.1e-05	0
bin	1.12e-05	0
bin	1.14e-05	0
bin	1.16e-05	0
bin	1.18e-05	0
bin	1.2e-05	0
bin	1.22e-05	0
bin	1.24e-05	0
bin	1.26e-05	0
bin	1.28e-05	0
bin	1.3e-05	0
bin	1.32e-05	0
bin	1.34e-05	0
bin	1.36e-05	0
bin	1.38e-05	0
bin	1.4e-05	0
bin	1.42e-05	0
bin	1.44e-05	0
bin	1.46e-05	0
bin	1.48e-05	0
bin	1.5e-05	0
bin	1.52e-05	0
bin	1.54e-05	0
bin	1.56e-05	0
bin	1.58e-05	15
bin	1.6e-05	0
scalar projectphase3.H1.eth[0].mac.queue queueLength:max 1
attr interpolationmode sample-hold
attr source "count(localSignal(packetPushed)) - count(localSignal(packetPopped)) - count(localSignal(packetRemoved)) - count(packetDropped)"
attr title "queue length, max"
scalar projectphase3.H1.eth[0].mac.queue queueLength:timeavg 1.9366612009608e-07
attr interpolationmode sample-hold
attr source "count(localSignal(packetPushed)) - count(localSignal(packetPopped)) - count(localSignal(packetRemoved)) - count(packetDropped)"
attr title "queue length, timeavg"
scalar projectphase3.H1.eth[0].mac.queue packetPushed:count 52048
attr interpolationmode none
attr source localSignal(packetPushed)
attr title "packets pushed, count"
scalar projectphase3.H1.eth[0].mac.queue packetPushed:sum(packetBytes) 21165224
attr interpolationmode none
attr source localSignal(packetPushed)
attr title "packets pushed, sum(packetBytes)"
scalar projectphase3.H1.eth[0].mac.queue packetDropQueueOverflow:count 0
attr interpolationmode none
attr source packetDropReasonIsQueueOverflow(packetDropped)
attr title "packets dropped: queue overflow, count"
scalar projectphase3.H1.eth[0].mac.queue packetDropQueueOverflow:sum(packetBytes) 0
attr interpolationmode none
attr source packetDropReasonIsQueueOverflow(packetDropped)
attr title "packets dropped: queue overflow, sum(packetBytes)"
scalar projectphase3.H1.eth[0].mac.queue packetRemoved:count 0
attr interpolationmode none
attr source localSignal(packetRemoved)
attr title "packets removed, count"
scalar projectphase3.H1.eth[0].mac.queue packetRemoved:sum(packetBytes) 0
attr interpolationmode none
attr source localSignal(packetRemoved)
attr title "packets removed, sum(packetBytes)"
scalar projectphase3.H1.eth[0].mac "simulated time" 1250
scalar projectphase3.H1.eth[0].mac full-duplex 1
scalar projectphase3.H1.eth[0].mac "frames/sec sent" 41.6384
scalar projectphase3.H1.eth[0].mac "frames/sec rcvd" 0.1232
scalar projectphase3.H1.eth[0].mac "bits/sec sent" 135457.4336
scalar projectphase3.H1.eth[0].mac "bits/sec rcvd" 78.08
scalar projectphase3.H1.eth[0].mac "rx channel idle (%)" 100
scalar projectphase3.H1.eth[0].mac "rx channel utilization (%)" 0
scalar projectphase3.H1.eth[0].mac txPk:count 52048
attr interpolationmode none
attr source packetSentToLower
attr title "packets transmitted, count"
scalar projectphase3.H1.eth[0].mac txPk:sum(packetBytes) 21165224
attr interpolationmode none
attr source packetSentToLower
attr title "packets transmitted, sum(packetBytes)"
scalar projectphase3.H1.eth[0].mac packetReceivedFromUpper:count 52048
attr interpolationmode none
attr source packetReceivedFromUpper
attr title "packet bytes from higher layer, count"
scalar projectphase3.H1.eth[0].mac packetReceivedFromUpper:sum(packetBytes) 21164908
attr interpolationmode none
attr source packetReceivedFromUpper
attr title "packet bytes from higher layer, sum(packetBytes)"
scalar projectphase3.H1.eth[0].mac passedUpPk:count 154
attr interpolationmode none
attr source packetSentToUpper
attr title "packets passed to higher layer, count"
scalar projectphase3.H1.eth[0].mac passedUpPk:sum(packetBytes) 12200
attr interpolationmode none
attr source packetSentToUpper
attr title "packets passed to higher layer, sum(packetBytes)"
scalar projectphase3.H1.eth[0].mac packetDropIncorrectlyReceived:count 0
attr interpolationmode none
attr source packetDropReasonIsIncorrectlyReceived(packetDropped)
attr title "packet drop: incorrectly received, count"
scalar projectphase3.H1.eth[0].mac packetDropIncorrectlyReceived:sum(packetBytes) 0
attr interpolationmode none
attr source packetDropReasonIsIncorrectlyReceived(packetDropped)
attr title "packet drop: incorrectly received, sum(packetBytes)"
scalar projectphase3.H1.eth[0].mac packetDropInterfaceDown:count 0
attr interpolationmode none
attr source packetDropReasonIsInterfaceDown(packetDropped)
attr title "packet drop: interface down, count"
scalar projectphase3.H1.eth[0].mac packetDropInterfaceDown:sum(packetBytes) 0
attr interpolationmode none
attr source packetDropReasonIsInterfaceDown(packetDropped)
attr title "packet drop: interface down, sum(packetBytes)"
scalar projectphase3.H1.eth[0].mac packetDropNotAddressedToUs:count 0
attr interpolationmode none
attr source packetDropReasonIsNotAddressedToUs(packetDropped)
attr title "packet drop: not addressed to us, count"
scalar projectphase3.H1.eth[0].mac packetDropNotAddressedToUs:sum(packetBytes) 0
attr interpolationmode none
attr source packetDropReasonIsNotAddressedToUs(packetDropped)
attr title "packet drop: not addressed to us, sum(packetBytes)"
scalar projectphase3.H1.eth[0].mac rxPausePkUnits:count 0
attr interpolationmode none
attr title "pause units received, count"
scalar projectphase3.H1.eth[0].mac rxPausePkUnits:sum 0
attr interpolationmode none
attr title "pause units received, sum"
scalar projectphase3.H1.eth[0].mac txPausePkUnits:count 0
attr interpolationmode none
attr title "pause units sent, count"
scalar projectphase3.H1.eth[0].mac txPausePkUnits:sum 0
attr interpolationmode none
attr title "pause units sent, sum"
scalar projectphase3.H1.eth[0].mac rxPkOk:count 154
attr interpolationmode none
attr source rxPkOk
attr title "packets received OK, count"
scalar projectphase3.H1.eth[0].mac rxPkOk:sum(packetBytes) 12200
attr interpolationmode none
attr source rxPkOk
attr title "packets received OK, sum(packetBytes)"
scalar projectphase3.H1.eth[0].encap pauseSent:count 0
attr title "pause sent, count"
scalar projectphase3.H1.eth[0].encap pauseSent:sum 0
attr title "pause sent, sum"
scalar projectphase3.H1.eth[0].encap decapPk:count 154
attr interpolationmode none
attr source decapPk
attr title "packets decapsulated, count"
scalar projectphase3.H1.eth[0].encap decapPk:sum(packetBytes) 9428
attr interpolationmode none
attr source decapPk
attr title "packets decapsulated, sum(packetBytes)"
scalar projectphase3.H1.eth[0].encap encapPk:count 52048
attr interpolationmode none
attr source encapPk
attr title "packets encapsulated, count"
scalar projectphase3.H1.eth[0].encap encapPk:sum(packetBytes) 20228044
attr interpolationmode none
attr source encapPk
attr title "packets encapsulated, sum(packetBytes)"
scalar projectphase3.H1.ipv4.ip packetDropAddressResolutionFailed:count 0
attr interpolationmode none
attr source packetDropReasonIsAddressResolutionFailed(packetDropped)
attr title "packet drop: address resolution failed, count"
scalar projectphase3.H1.ipv4.ip packetDropAddressResolutionFailed:sum(packetBytes) 0
attr interpolationmode none
attr source packetDropReasonIsAddressResolutionFailed(packetDropped)
attr title "packet drop: address resolution failed, sum(packetBytes)"
scalar projectphase3.H1.ipv4.ip packetDropHopLimitReached:count 0
attr interpolationmode none
attr source packetDropReasonIsHopLimitReached(packetDropped)
attr title "packet drop: hop limit reached, count"
scalar projectphase3.H1.ipv4.ip packetDropHopLimitReached:sum(packetBytes) 0
attr interpolationmode none
attr source packetDropReasonIsHopLimitReached(packetDropped)
attr title "packet drop: hop limit reached, sum(packetBytes)"
scalar projectphase3.H1.ipv4.ip packetDropForwardingDisabled:count 0
attr interpolationmode none
attr source packetDropReasonIsForwardingDisabled(packetDropped)
attr title "packet drop: forwarding disabled, count"
scalar projectphase3.H1.ipv4.ip packetDropForwardingDisabled:sum(packetBytes) 0
attr interpolationmode none
attr source packetDropReasonIsForwardingDisabled(packetDropped)
attr title "packet drop: forwarding disabled, sum(packetBytes)"
scalar projectphase3.H1.ipv4.ip packetDropNoInterfaceFound:count 0
attr interpolationmode none
attr source packetDropReasonIsNoInterfaceFound(packetDropped)
attr title "packet drop: no interface found, count"
scalar projectphase3.H1.ipv4.ip packetDropNoInterfaceFound:sum(packetBytes) 0
attr interpolationmode none
attr source packetDropReasonIsNoInterfaceFound(packetDropped)
attr title "packet drop: no interface found, sum(packetBytes)"
scalar projectphase3.H1.ipv4.ip packetDropNoRouteFound:count 0
attr interpolationmode none
attr source packetDropReasonIsNoRouteFound(packetDropped)
attr title "packet drop: no route found, count"
scalar projectphase3.H1.ipv4.ip packetDropNoRouteFound:sum(packetBytes) 0
attr interpolationmode none
attr source packetDropReasonIsNoRouteFound(packetDropped)
attr title "packet drop: no route found, sum(packetBytes)"
scalar projectphase3.H1.ipv4.ip packetDropUndefined:count 0
attr interpolationmode none
attr source packetDropReasonIsUndefined(packetDropped)
attr title "packet drop: undefined, count"
scalar projectphase3.H1.ipv4.ip packetDropUndefined:sum(packetBytes) 0
attr interpolationmode none
attr source packetDropReasonIsUndefined(packetDropped)
attr title "packet drop: undefined, sum(packetBytes)"
scalar projectphase3.H1.ipv4.arp arpReplySent:count 0
attr source arpReplySent
attr title "ARP replies sent, count"
scalar projectphase3.H1.ipv4.arp arpReplySent:sum(packetBytes) 0
attr source arpReplySent
attr title "ARP replies sent, sum(packetBytes)"
scalar projectphase3.H1.ipv4.arp arpRequestSent:count 11
attr source arpRequestSent
attr title "ARP request sent, count"
scalar projectphase3.H1.ipv4.arp arpRequestSent:sum(packetBytes) 308
attr source arpRequestSent
attr title "ARP request sent, sum(packetBytes)"
scalar projectphase3.H1.ipv4.arp arpResolutionFailed:count 0
attr title "ARP failed resolutions, count"
scalar projectphase3.H1.ipv4.arp arpResolutionCompleted:count 11
attr title "ARP completed resolutions, count"
scalar projectphase3.H1.ipv4.arp arpResolutionInitiated:count 11
attr title "ARP initiated resolutions, count"
scalar projectphase3.H1.udp packetReceived:count 0
attr interpolationmode none
attr source packetReceived
attr title "packets received, count"
scalar projectphase3.H1.udp packetReceived:sum(packetBytes) 0
attr interpolationmode none
attr source packetReceived
attr title "packets received, sum(packetBytes)"
scalar projectphase3.H1.udp packetSent:count 51988
attr interpolationmode none
attr source packetSent
attr title "packets sent, count"
scalar projectphase3.H1.udp packetSent:sum(packetBytes) 19185048
attr interpolationmode none
attr source packetSent
attr title "packets sent, sum(packetBytes)"
scalar projectphase3.H1.udp passedUpPk:count 0
attr interpolationmode none
attr source packetSentToUpper
attr title "packets passed up, count"
scalar projectphase3.H1.udp droppedPkWrongPort:count 0
attr interpolationmode none
attr source packetDropReasonIsNoPortFound(packetDropped)
attr title "packets dropped (wrong port), count"
scalar projectphase3.H1.udp droppedPkBadChecksum:count 0
attr interpolationmode none
attr source packetDropReasonIsIncorrectlyReceived(packetDropped)
attr title "packets dropped (checksum error), count"
scalar projectphase3.H1.app[0] "Total sent" 22027
scalar projectphase3.H1.app[0] "Total received" 0
scalar projectphase3.H1.app[0] "Total deleted" 0
scalar projectphase3.H1.app[0] outOfOrderPk:count 0
attr interpolationmode none
attr source outOfOrderPk
attr title "packets received out of order, count"
scalar projectphase3.H1.app[0] outOfOrderPk:sum(packetBytes) 0
attr interpolationmode none
attr source outOfOrderPk
attr title "packets received out of order, sum(packetBytes)"
scalar projectphase3.H1.app[0] packetReceived:count 0
attr interpolationmode none
attr source packetReceived
attr title "packets received, count"
scalar projectphase3.H1.app[0] packetReceived:sum(packetBytes) 0
attr interpolationmode none
attr source packetReceived
attr title "packets received, sum(packetBytes)"
scalar projectphase3.H1.app[0] packetSent:count 22027
attr interpolationmode none
attr source packetSent
attr title "packets sent, count"
scalar projectphase3.H1.app[0] packetSent:sum(packetBytes) 3788644
attr interpolationmode none
attr source packetSent
attr title "packets sent, sum(packetBytes)"
scalar projectphase3.H1.app[1] "packets sent" 29961
scalar projectphase3.H1.app[1] "packets received" 0
scalar projectphase3.H1.app[1] packetReceived:count 0
attr interpolationmode none
attr source packetReceived
attr title "packets received, count"
scalar projectphase3.H1.app[1] packetReceived:sum(packetBytes) 0
attr interpolationmode none
attr source packetReceived
attr title "packets received, sum(packetBytes)"
statistic projectphase3.H1.app[1] rcvdPkLifetime:stats
field count 0
field mean nan
field stddev nan
field min nan
field max nan
field sum 0
field sqrsum 0
attr interpolationmode none
attr source dataAge(packetReceived)
attr title "received packet lifetime, stats"
attr unit s
scalar projectphase3.H1.app[1] packetSent:count 29961
attr interpolationmode none
attr source packetSent
attr title "packets sent, count"
scalar projectphase3.H1.app[1] packetSent:sum(packetBytes) 14980500
attr interpolationmode none
attr source packetSent
attr title "packets sent, sum(packetBytes)"
scalar projectphase3.H1.app[2] numActiveSessions:max 4
attr interpolationmode sample-hold
attr source sum(connect)
attr title "number of active sessions, max"
scalar projectphase3.H1.app[2] numActiveSessions:timeavg 3.0951584137899
attr interpolationmode sample-hold
attr source sum(connect)
attr title "number of active sessions, timeavg"
scalar projectphase3.H1.app[2] numSessions:last 5
attr source sum(connect+1)/2
attr title "total number of sessions, last"
scalar projectphase3.H1.app[2] packetReceived:count 1
attr interpolationmode none
attr source packetReceived
attr title "packets received, count"
scalar projectphase3.H1.app[2] packetReceived:sum(packetBytes) 100
attr interpolationmode none
attr source packetReceived
attr title "packets received, sum(packetBytes)"
scalar projectphase3.H1.app[2] packetSent:count 3
attr interpolationmode none
attr source packetSent
attr title "packets sent, count"
scalar projectphase3.H1.app[2] packetSent:sum(packetBytes) 150
attr interpolationmode none
attr source packetSent
attr title "packets sent, sum(packetBytes)"
scalar projectphase3.H2.lo[0].lo rcvdPkFromHl:count 0
attr interpolationmode none
attr source packetReceivedFromUpper
attr title "packets received from higher layer, count"
scalar projectphase3.H2.lo[0].lo rcvdPkFromHl:sum(packetBytes) 0
attr interpolationmode none
attr source packetReceivedFromUpper
attr title "packets received from higher layer, sum(packetBytes)"
scalar projectphase3.H2.lo[0].lo passedUpPk:count 0
attr interpolationmode none
attr source packetSentToUpper
attr title "packets passed to higher layer, count"
scalar projectphase3.H2.lo[0].lo passedUpPk:sum(packetBytes) 0
attr interpolationmode none
attr source packetSentToUpper
attr title "packets passed to higher layer, sum(packetBytes)"
scalar projectphase3.H2.eth[0].mac.queue.classifier packetPushed:count 29
attr interpolationmode none
attr title "packets pushed, count"
scalar projectphase3.H2.eth[0].mac.queue.classifier packetPushed:sum(packetBytes) 1950
attr interpolationmode none
attr title "packets pushed, sum(packetBytes)"
scalar projectphase3.H2.eth[0].mac.queue.classifier packetDropped:count 0
attr interpolationmode none
attr title "packets dropped, count"
scalar projectphase3.H2.eth[0].mac.queue.classifier packetDropped:sum(packetBytes) 0
attr interpolationmode none
attr title "packets dropped, sum(packetBytes)"
scalar projectphase3.H2.eth[0].mac.queue.pauseQueue packetPopped:count 0
attr interpolationmode none
attr title "packet popped, count"
scalar projectphase3.H2.eth[0].mac.queue.pauseQueue packetPopped:sum(packetBytes) 0
attr interpolationmode none
attr title "packet popped, sum(packetBytes)"
statistic projectphase3.H2.eth[0].mac.queue.pauseQueue queueingTime:histogram
field count 0
field mean nan
field stddev nan
field min nan
field max nan
field sum 0
field sqrsum 0
attr interpolationmode none
attr source queueingTime(packetPopped)
attr title "queueing times, histogram"
attr unit s
bin	-inf	0
bin	0	0
bin	1	0
scalar projectphase3.H2.eth[0].mac.queue.pauseQueue queueLength:max nan
attr interpolationmode sample-hold
attr source "count(packetPushed) - count(packetPopped) - count(packetRemoved) - count(packetDropped)"
attr title "queue length, max"
scalar projectphase3.H2.eth[0].mac.queue.pauseQueue queueLength:timeavg nan
attr interpolationmode sample-hold
attr source "count(packetPushed) - count(packetPopped) - count(packetRemoved) - count(packetDropped)"
attr title "queue length, timeavg"
scalar projectphase3.H2.eth[0].mac.queue.pauseQueue packetPushed:count 0
attr interpolationmode none
attr title "packet pushed, count"
scalar projectphase3.H2.eth[0].mac.queue.pauseQueue packetPushed:sum(packetBytes) 0
attr interpolationmode none
attr title "packet pushed, sum(packetBytes)"
scalar projectphase3.H2.eth[0].mac.queue.pauseQueue packetDropQueueOverflow:count 0
attr interpolationmode none
attr source packetDropReasonIsQueueOverflow(packetDropped)
attr title "packet drops: queue overflow, count"
scalar projectphase3.H2.eth[0].mac.queue.pauseQueue packetDropQueueOverflow:sum(packetBytes) 0
attr interpolationmode none
attr source packetDropReasonIsQueueOverflow(packetDropped)
attr title "packet drops: queue overflow, sum(packetBytes)"
scalar projectphase3.H2.eth[0].mac.queue.pauseQueue packetRemoved:count 0
attr interpolationmode none
attr title "packets removed, count"
scalar projectphase3.H2.eth[0].mac.queue.pauseQueue packetRemoved:sum(packetBytes) 0
attr interpolationmode none
attr title "packets removed, sum(packetBytes)"
scalar projectphase3.H2.eth[0].mac.queue.dataQueue packetPopped:count 29
attr interpolationmode none
attr title "packet popped, count"
scalar projectphase3.H2.eth[0].mac.queue.dataQueue packetPopped:sum(packetBytes) 1950
attr interpolationmode none
attr title "packet popped, sum(packetBytes)"
statistic projectphase3.H2.eth[0].mac.queue.dataQueue queueingTime:histogram
field count 29
field mean 4.6344827586207e-07
field stddev 1.7329584033052e-06
field min 0
field max 6.72e-06
field sum 1.344e-05
field sqrsum 9.03168e-11
attr interpolationmode none
attr source queueingTime(packetPopped)
attr title "queueing times, histogram"
attr unit s
bin	-inf	0
bin	0	27
bin	1e-07	0
bin	2e-07	0
bin	3e-07	0
bin	4e-07	0
bin	5e-07	0
bin	6e-07	0
bin	7e-07	0
bin	8e-07	0
bin	9e-07	0
bin	1e-06	0
bin	1.1e-06	0
bin	1.2e-06	0
bin	1.3e-06	0
bin	1.4e-06	0
bin	1.5e-06	0
bin	1.6e-06	0
bin	1.7e-06	0
bin	1.8e-06	0
bin	1.9e-06	0
bin	2e-06	0
bin	2.1e-06	0
bin	2.2e-06	0
bin	2.3e-06	0
bin	2.4e-06	0
bin	2.5e-06	0
bin	2.6e-06	0
bin	2.7e-06	0
bin	2.8e-06	0
bin	2.9e-06	0
bin	3e-06	0
bin	3.1e-06	0
bin	3.2e-06	0
bin	3.3e-06	0
bin	3.4e-06	0
bin	3.5e-06	0
bin	3.6e-06	0
bin	3.7e-06	0
bin	3.8e-06	0
bin	3.9e-06	0
bin	4e-06	0
bin	4.1e-06	0
bin	4.2e-06	0
bin	4.3e-06	0
bin	4.4e-06	0
bin	4.5e-06	0
bin	4.6e-06	0
bin	4.7e-06	0
bin	4.8e-06	0
bin	4.9e-06	0
bin	5e-06	0
bin	5.1e-06	0
bin	5.2e-06	0
bin	5.3e-06	0
bin	5.4e-06	0
bin	5.5e-06	0
bin	5.6e-06	0
bin	5.7e-06	0
bin	5.8e-06	0
bin	5.9e-06	0
bin	6e-06	0
bin	6.1e-06	0
bin	6.2e-06	0
bin	6.3e-06	0
bin	6.4e-06	0
bin	6.5e-06	0
bin	6.6e-06	0
bin	6.7e-06	2
bin	6.8e-06	0
bin	6.9e-06	0
bin	7e-06	0
bin	7.1e-06	0
bin	7.2e-06	0
bin	7.3e-06	0
bin	7.4e-06	0
bin	7.5e-06	0
bin	7.6e-06	0
bin	7.7e-06	0
bin	7.8e-06	0
bin	7.9e-06	0
bin	8e-06	0
bin	8.1e-06	0
bin	8.2e-06	0
bin	8.3e-06	0
bin	8.4e-06	0
scalar projectphase3.H2.eth[0].mac.queue.dataQueue queueLength:max 1
attr interpolationmode sample-hold
attr source "count(packetPushed) - count(packetPopped) - count(packetRemoved) - count(packetDropped)"
attr title "queue length, max"
scalar projectphase3.H2.eth[0].mac.queue.dataQueue queueLength:timeavg 1.0761244108762e-08
attr interpolationmode sample-hold
attr source "count(packetPushed) - count(packetPopped) - count(packetRemoved) - count(packetDropped)"
attr title "queue length, timeavg"
scalar projectphase3.H2.eth[0].mac.queue.dataQueue packetPushed:count 29
attr interpolationmode none
attr title "packet pushed, count"
scalar projectphase3.H2.eth[0].mac.queue.dataQueue packetPushed:sum(packetBytes) 1950
attr interpolationmode none
attr title "packet pushed, sum(packetBytes)"
scalar projectphase3.H2.eth[0].mac.queue.dataQueue packetDropQueueOverflow:count 0
attr interpolationmode none
attr source packetDropReasonIsQueueOverflow(packetDropped)
attr title "packet drops: queue overflow, count"
scalar projectphase3.H2.eth[0].mac.queue.dataQueue packetDropQueueOverflow:sum(packetBytes) 0
attr interpolationmode none
attr source packetDropReasonIsQueueOverflow(packetDropped)
attr title "packet drops: queue overflow, sum(packetBytes)"
scalar projectphase3.H2.eth[0].mac.queue.dataQueue packetRemoved:count 0
attr interpolationmode none
attr title "packets removed, count"
scalar projectphase3.H2.eth[0].mac.queue.dataQueue packetRemoved:sum(packetBytes) 0
attr interpolationmode none
attr title "packets removed, sum(packetBytes)"
scalar projectphase3.H2.eth[0].mac.queue.scheduler packetPopped:count 29
attr interpolationmode none
attr title "packets popped, count"
scalar projectphase3.H2.eth[0].mac.queue.scheduler packetPopped:sum(packetBytes) 1950
attr interpolationmode none
attr title "packets popped, sum(packetBytes)"
scalar projectphase3.H2.eth[0].mac.queue packetPopped:count 29
attr interpolationmode none
attr source localSignal(packetPopped)
attr title "packets popped, count"
scalar projectphase3.H2.eth[0].mac.queue packetPopped:sum(packetBytes) 1950
attr interpolationmode none
attr source localSignal(packetPopped)
attr title "packets popped, sum(packetBytes)"
statistic projectphase3.H2.eth[0].mac.queue queueingTime:histogram
field count 87
field mean 4.6344827586207e-07
field stddev 1.7126891866887e-06
field min 0
field max 6.72e-06
field sum 4.032e-05
field sqrsum 2.709504e-10
attr interpolationmode none
attr source queueingTime(packetPopped)
attr title "queueing times, histogram"
attr unit s
bin	-inf	0
bin	0	81
bin	1e-07	0
bin	2e-07	0
bin	3e-07	0
bin	4e-07	0
bin	5e-07	0
bin	6e-07	0
bin	7e-07	0
bin	8e-07	0
bin	9e-07	0
bin	1e-06	0
bin	1.1e-06	0
bin	1.2e-06	0
bin	1.3e-06	0
bin	1.4e-06	0
bin	1.5e-06	0
bin	1.6e-06	0
bin	1.7e-06	0
bin	1.8e-06	0
bin	1.9e-06	0
bin	2e-06	0
bin	2.1e-06	0
bin	2.2e-06	0
bin	2.3e-06	0
bin	2.4e-06	0
bin	2.5e-06	0
bin	2.6e-06	0
bin	2.7e-06	0
bin	2.8e-06	0
bin	2.9e-06	0
bin	3e-06	0
bin	3.1e-06	0
bin	3.2e-06	0
bin	3.3e-06	0
bin	3.4e-06	0
bin	3.5e-06	0
bin	3.6e-06	0
bin	3.7e-06	0
bin	3.8e-06	0
bin	3.9e-06	0
bin	4e-06	0
bin	4.1e-06	0
bin	4.2e-06	0
bin	4.3e-06	0
bin	4.4e-06	0
bin	4.5e-06	0
bin	4.6e-06	0
bin	4.7e-06	0
bin	4.8e-06	0
bin	4.9e-06	0
bin	5e-06	0
bin	5.1e-06	0
bin	5.2e-06	0
bin	5.3e-06	0
bin	5.4e-06	0
bin	5.5e-06	0
bin	5.6e-06	0
bin	5.7e-06	0
bin	5.8e-06	0
bin	5.9e-06	0
bin	6e-06	0
bin	6.1e-06	0
bin	6.2e-06	0
bin	6.3e-06	0
bin	6.4e-06	0
bin	6.5e-06	0
bin	6.6e-06	0
bin	6.7e-06	6
bin	6.8e-06	0
bin	6.9e-06	0
bin	7e-06	0
bin	7.1e-06	0
bin	7.2e-06	0
bin	7.3e-06	0
bin	7.4e-06	0
bin	7.5e-06	0
bin	7.6e-06	0
bin	7.7e-06	0
bin	7.8e-06	0
bin	7.9e-06	0
bin	8e-06	0
bin	8.1e-06	0
bin	8.2e-06	0
bin	8.3e-06	0
bin	8.4e-06	0
scalar projectphase3.H2.eth[0].mac.queue queueLength:max 1
attr interpolationmode sample-hold
attr source "count(localSignal(packetPushed)) - count(localSignal(packetPopped)) - count(localSignal(packetRemoved)) - count(packetDropped)"
attr title "queue length, max"
scalar projectphase3.H2.eth[0].mac.queue queueLength:timeavg 1.0761244108762e-08
attr interpolationmode sample-hold
attr source "count(localSignal(packetPushed)) - count(localSignal(packetPopped)) - count(localSignal(packetRemoved)) - count(packetDropped)"
attr title "queue length, timeavg"
scalar projectphase3.H2.eth[0].mac.queue packetPushed:count 29
attr interpolationmode none
attr source localSignal(packetPushed)
attr title "packets pushed, count"
scalar projectphase3.H2.eth[0].mac.queue packetPushed:sum(packetBytes) 1950
attr interpolationmode none
attr source localSignal(packetPushed)
attr title "packets pushed, sum(packetBytes)"
scalar projectphase3.H2.eth[0].mac.queue packetDropQueueOverflow:count 0
attr interpolationmode none
attr source packetDropReasonIsQueueOverflow(packetDropped)
attr title "packets dropped: queue overflow, count"
scalar projectphase3.H2.eth[0].mac.queue packetDropQueueOverflow:sum(packetBytes) 0
attr interpolationmode none
attr source packetDropReasonIsQueueOverflow(packetDropped)
attr title "packets dropped: queue overflow, sum(packetBytes)"
scalar projectphase3.H2.eth[0].mac.queue packetRemoved:count 0
attr interpolationmode none
attr source localSignal(packetRemoved)
attr title "packets removed, count"
scalar projectphase3.H2.eth[0].mac.queue packetRemoved:sum(packetBytes) 0
attr interpolationmode none
attr source localSignal(packetRemoved)
attr title "packets removed, sum(packetBytes)"
scalar projectphase3.H2.eth[0].mac "simulated time" 1250
scalar projectphase3.H2.eth[0].mac full-duplex 1
scalar projectphase3.H2.eth[0].mac "frames/sec sent" 0.0232
scalar projectphase3.H2.eth[0].mac "frames/sec rcvd" 2.9168
scalar projectphase3.H2.eth[0].mac "bits/sec sent" 12.48
scalar projectphase3.H2.eth[0].mac "bits/sec rcvd" 8148.0448
scalar projectphase3.H2.eth[0].mac "rx channel idle (%)" 100
scalar projectphase3.H2.eth[0].mac "rx channel utilization (%)" 0
scalar projectphase3.H2.eth[0].mac txPk:count 29
attr interpolationmode none
attr source packetSentToLower
attr title "packets transmitted, count"
scalar projectphase3.H2.eth[0].mac txPk:sum(packetBytes) 1950
attr interpolationmode none
attr source packetSentToLower
attr title "packets transmitted, sum(packetBytes)"
scalar projectphase3.H2.eth[0].mac packetReceivedFromUpper:count 29
attr interpolationmode none
attr source packetReceivedFromUpper
attr title "packet bytes from higher layer, count"
scalar projectphase3.H2.eth[0].mac packetReceivedFromUpper:sum(packetBytes) 1694
attr interpolationmode none
attr source packetReceivedFromUpper
attr title "packet bytes from higher layer, sum(packetBytes)"
scalar projectphase3.H2.eth[0].mac passedUpPk:count 3646
attr interpolationmode none
attr source packetSentToUpper
attr title "packets passed to higher layer, count"
scalar projectphase3.H2.eth[0].mac passedUpPk:sum(packetBytes) 1273132
attr interpolationmode none
attr source packetSentToUpper
attr title "packets passed to higher layer, sum(packetBytes)"
scalar projectphase3.H2.eth[0].mac packetDropIncorrectlyReceived:count 0
attr interpolationmode none
attr source packetDropReasonIsIncorrectlyReceived(packetDropped)
attr title "packet drop: incorrectly received, count"
scalar projectphase3.H2.eth[0].mac packetDropIncorrectlyReceived:sum(packetBytes) 0
attr interpolationmode none
attr source packetDropReasonIsIncorrectlyReceived(packetDropped)
attr title "packet drop: incorrectly received, sum(packetBytes)"
scalar projectphase3.H2.eth[0].mac packetDropInterfaceDown:count 0
attr interpolationmode none
attr source packetDropReasonIsInterfaceDown(packetDropped)
attr title "packet drop: interface down, count"
scalar projectphase3.H2.eth[0].mac packetDropInterfaceDown:sum(packetBytes) 0
attr interpolationmode none
attr source packetDropReasonIsInterfaceDown(packetDropped)
attr title "packet drop: interface down, sum(packetBytes)"
scalar projectphase3.H2.eth[0].mac packetDropNotAddressedToUs:count 0
attr interpolationmode none
attr source packetDropReasonIsNotAddressedToUs(packetDropped)
attr title "packet drop: not addressed to us, count"
scalar projectphase3.H2.eth[0].mac packetDropNotAddressedToUs:sum(packetBytes) 0
attr interpolationmode none
attr source packetDropReasonIsNotAddressedToUs(packetDropped)
attr title "packet drop: not addressed to us, sum(packetBytes)"
scalar projectphase3.H2.eth[0].mac rxPausePkUnits:count 0
attr interpolationmode none
attr title "pause units received, count"
scalar projectphase3.H2.eth[0].mac rxPausePkUnits:sum 0
attr interpolationmode none
attr title "pause units received, sum"
scalar projectphase3.H2.eth[0].mac txPausePkUnits:count 0
attr interpolationmode none
attr title "pause units sent, count"
scalar projectphase3.H2.eth[0].mac txPausePkUnits:sum 0
attr interpolationmode none
attr title "pause units sent, sum"
scalar projectphase3.H2.eth[0].mac rxPkOk:count 3646
attr interpolationmode none
attr source rxPkOk
attr title "packets received OK, count"
scalar projectphase3.H2.eth[0].mac rxPkOk:sum(packetBytes) 1273132
attr interpolationmode none
attr source rxPkOk
attr title "packets received OK, sum(packetBytes)"
scalar projectphase3.H2.eth[0].encap pauseSent:count 0
attr title "pause sent, count"
scalar projectphase3.H2.eth[0].encap pauseSent:sum 0
attr title "pause sent, sum"
scalar projectphase3.H2.eth[0].encap decapPk:count 3646
attr interpolationmode none
attr source decapPk
attr title "packets decapsulated, count"
scalar projectphase3.H2.eth[0].encap decapPk:sum(packetBytes) 1207504
attr interpolationmode none
attr source decapPk
attr title "packets decapsulated, sum(packetBytes)"
scalar projectphase3.H2.eth[0].encap encapPk:count 29
attr interpolationmode none
attr source encapPk
attr title "packets encapsulated, count"
scalar projectphase3.H2.eth[0].encap encapPk:sum(packetBytes) 1172
attr interpolationmode none
attr source encapPk
attr title "packets encapsulated, sum(packetBytes)"
scalar projectphase3.H2.ipv4.ip packetDropAddressResolutionFailed:count 0
attr interpolationmode none
attr source packetDropReasonIsAddressResolutionFailed(packetDropped)
attr title "packet drop: address resolution failed, count"
scalar projectphase3.H2.ipv4.ip packetDropAddressResolutionFailed:sum(packetBytes) 0
attr interpolationmode none
attr source packetDropReasonIsAddressResolutionFailed(packetDropped)
attr title "packet drop: address resolution failed, sum(packetBytes)"
scalar projectphase3.H2.ipv4.ip packetDropHopLimitReached:count 0
attr interpolationmode none
attr source packetDropReasonIsHopLimitReached(packetDropped)
attr title "packet drop: hop limit reached, count"
scalar projectphase3.H2.ipv4.ip packetDropHopLimitReached:sum(packetBytes) 0
attr interpolationmode none
attr source packetDropReasonIsHopLimitReached(packetDropped)
attr title "packet drop: hop limit reached, sum(packetBytes)"
scalar projectphase3.H2.ipv4.ip packetDropForwardingDisabled:count 0
attr interpolationmode none
attr source packetDropReasonIsForwardingDisabled(packetDropped)
attr title "packet drop: forwarding disabled, count"
scalar projectphase3.H2.ipv4.ip packetDropForwardingDisabled:sum(packetBytes) 0
attr interpolationmode none
attr source packetDropReasonIsForwardingDisabled(packetDropped)
attr title "packet drop: forwarding disabled, sum(packetBytes)"
scalar projectphase3.H2.ipv4.ip packetDropNoInterfaceFound:count 0
attr interpolationmode none
attr source packetDropReasonIsNoInterfaceFound(packetDropped)
attr title "packet drop: no interface found, count"
scalar projectphase3.H2.ipv4.ip packetDropNoInterfaceFound:sum(packetBytes) 0
attr interpolationmode none
attr source packetDropReasonIsNoInterfaceFound(packetDropped)
attr title "packet drop: no interface found, sum(packetBytes)"
scalar projectphase3.H2.ipv4.ip packetDropNoRouteFound:count 0
attr interpolationmode none
attr source packetDropReasonIsNoRouteFound(packetDropped)
attr title "packet drop: no route found, count"
scalar projectphase3.H2.ipv4.ip packetDropNoRouteFound:sum(packetBytes) 0
attr interpolationmode none
attr source packetDropReasonIsNoRouteFound(packetDropped)
attr title "packet drop: no route found, sum(packetBytes)"
scalar projectphase3.H2.ipv4.ip packetDropUndefined:count 0
attr interpolationmode none
attr source packetDropReasonIsUndefined(packetDropped)
attr title "packet drop: undefined, count"
scalar projectphase3.H2.ipv4.ip packetDropUndefined:sum(packetBytes) 0
attr interpolationmode none
attr source packetDropReasonIsUndefined(packetDropped)
attr title "packet drop: undefined, sum(packetBytes)"
scalar projectphase3.H2.ipv4.arp arpReplySent:count 11
attr source arpReplySent
attr title "ARP replies sent, count"
scalar projectphase3.H2.ipv4.arp arpReplySent:sum(packetBytes) 308
attr source arpReplySent
attr title "ARP replies sent, sum(packetBytes)"
scalar projectphase3.H2.ipv4.arp arpRequestSent:count 0
attr source arpRequestSent
attr title "ARP request sent, count"
scalar projectphase3.H2.ipv4.arp arpRequestSent:sum(packetBytes) 0
attr source arpRequestSent
attr title "ARP request sent, sum(packetBytes)"
scalar projectphase3.H2.ipv4.arp arpResolutionFailed:count 0
attr title "ARP failed resolutions, count"
scalar projectphase3.H2.ipv4.arp arpResolutionCompleted:count 11
attr title "ARP completed resolutions, count"
scalar projectphase3.H2.ipv4.arp arpResolutionInitiated:count 0
attr title "ARP initiated resolutions, count"
scalar projectphase3.H2.udp packetReceived:count 3499
attr interpolationmode none
attr source packetReceived
attr title "packets received, count"
scalar projectphase3.H2.udp packetReceived:sum(packetBytes) 1128380
attr interpolationmode none
attr source packetReceived
attr title "packets received, sum(packetBytes)"
scalar projectphase3.H2.udp packetSent:count 0
attr interpolationmode none
attr source packetSent
attr title "packets sent, count"
scalar projectphase3.H2.udp packetSent:sum(packetBytes) 0
attr interpolationmode none
attr source packetSent
attr title "packets sent, sum(packetBytes)"
scalar projectphase3.H2.udp passedUpPk:count 3499
attr interpolationmode none
attr source packetSentToUpper
attr title "packets passed up, count"
scalar projectphase3.H2.udp droppedPkWrongPort:count 0
attr interpolationmode none
attr source packetDropReasonIsNoPortFound(packetDropped)
attr title "packets dropped (wrong port), count"
scalar projectphase3.H2.udp droppedPkBadChecksum:count 0
attr interpolationmode none
attr source packetDropReasonIsIncorrectlyReceived(packetDropped)
attr title "packets dropped (checksum error), count"
scalar projectphase3.H2.app[0] "Total sent" 0
scalar projectphase3.H2.app[0] "Total received" 1583
scalar projectphase3.H2.app[0] "Total deleted" 0
scalar projectphase3.H2.app[0] outOfOrderPk:count 396
attr interpolationmode none
attr source outOfOrderPk
attr title "packets received out of order, count"
scalar projectphase3.H2.app[0] outOfOrderPk:sum(packetBytes) 68112
attr interpolationmode none
attr source outOfOrderPk
attr title "packets received out of order, sum(packetBytes)"
scalar projectphase3.H2.app[0] packetReceived:count 1583
attr interpolationmode none
attr source packetReceived
attr title "packets received, count"
scalar projectphase3.H2.app[0] packetReceived:sum(packetBytes) 272276
attr interpolationmode none
attr source packetReceived
attr title "packets received, sum(packetBytes)"
scalar projectphase3.H2.app[0] packetSent:count 0
attr interpolationmode none
attr source packetSent
attr title "packets sent, count"
scalar projectphase3.H2.app[0] packetSent:sum(packetBytes) 0
attr interpolationmode none
attr source packetSent
attr title "packets sent, sum(packetBytes)"
scalar projectphase3.H2.app[1] packetReceived:count 1520
attr interpolationmode none
attr source packetReceived
attr title "packets received, count"
scalar projectphase3.H2.app[1] packetReceived:sum(packetBytes) 760000
attr interpolationmode none
attr source packetReceived
attr title "packets received, sum(packetBytes)"
scalar projectphase3.H2.app[2] packetReceived:count 1
attr interpolationmode none
attr source packetReceived
attr title "packets received, count"
scalar projectphase3.H2.app[2] packetReceived:sum(packetBytes) 50
attr interpolationmode none
attr source packetReceived
attr title "packets received, sum(packetBytes)"
scalar projectphase3.H2.app[2] packetSent:count 1
attr interpolationmode none
attr source packetSent
attr title "packets sent, count"
scalar projectphase3.H2.app[2] packetSent:sum(packetBytes) 100
attr interpolationmode none
attr source packetSent
attr title "packets sent, sum(packetBytes)"
scalar projectphase3.R1.lo[0].lo rcvdPkFromHl:count 0
attr interpolationmode none
attr source packetReceivedFromUpper
attr title "packets received from higher layer, count"
scalar projectphase3.R1.lo[0].lo rcvdPkFromHl:sum(packetBytes) 0
attr interpolationmode none
attr source packetReceivedFromUpper
attr title "packets received from higher layer, sum(packetBytes)"
scalar projectphase3.R1.lo[0].lo passedUpPk:count 0
attr interpolationmode none
attr source packetSentToUpper
attr title "packets passed to higher layer, count"
scalar projectphase3.R1.lo[0].lo passedUpPk:sum(packetBytes) 0
attr interpolationmode none
attr source packetSentToUpper
attr title "packets passed to higher layer, sum(packetBytes)"
scalar projectphase3.R1.ppp[0].ppp.queue packetPopped:count 1962
attr interpolationmode none
attr title "packet popped, count"
scalar projectphase3.R1.ppp[0].ppp.queue packetPopped:sum(packetBytes) 746920
attr interpolationmode none
attr title "packet popped, sum(packetBytes)"
statistic projectphase3.R1.ppp[0].ppp.queue queueingTime:histogram
field count 1962
field mean 0.052128057521181
field stddev 0.048943238328036
field min 0
field max 0.2
field sum 102.27524885656
field sqrsum 10.028869028914
attr interpolationmode none
attr source queueingTime(packetPopped)
attr title "queueing times, histogram"
attr unit s
bin	-inf	0
bin	0	483
bin	0.004	1
bin	0.008	34
bin	0.012	78
bin	0.016	76
bin	0.02	63
bin	0.024	0
bin	0.028	6
bin	0.032	304
bin	0.036	15
bin	0.04	2
bin	0.044	82
bin	0.048	37
bin	0.052	12
bin	0.056	1
bin	0.06	68
bin	0.064	39
bin	0.068	5
bin	0.072	1
bin	0.076	48
bin	0.08	132
bin	0.084	2
bin	0.088	10
bin	0.092	55
bin	0.096	28
bin	0.1	30
bin	0.104	1
bin	0.108	8
bin	0.112	135
bin	0.116	27
bin	0.12	3
bin	0.124	2
bin	0.128	39
bin	0.132	6
bin	0.136	2
bin	0.14	0
bin	0.144	33
bin	0.148	19
bin	0.152	1
bin	0.156	16
bin	0.16	12
bin	0.164	6
bin	0.168	1
bin	0.172	0
bin	0.176	30
bin	0.18	0
bin	0.184	0
bin	0.188	6
bin	0.192	1
bin	0.196	2
bin	0.2	0
scalar projectphase3.R1.ppp[0].ppp.queue queueLength:max 5
attr interpolationmode sample-hold
attr source "count(packetPushed) - count(packetPopped) - count(packetRemoved) - count(packetDropped)"
attr title "queue length, max"
scalar projectphase3.R1.ppp[0].ppp.queue queueLength:timeavg 0.081827324465156
attr interpolationmode sample-hold
attr source "count(packetPushed) - count(packetPopped) - count(packetRemoved) - count(packetDropped)"
attr title "queue length, timeavg"
scalar projectphase3.R1.ppp[0].ppp.queue packetPushed:count 1962
attr interpolationmode none
attr title "packet pushed, count"
scalar projectphase3.R1.ppp[0].ppp.queue packetPushed:sum(packetBytes) 746920
attr interpolationmode none
attr title "packet pushed, sum(packetBytes)"
scalar projectphase3.R1.ppp[0].ppp.queue packetDropQueueOverflow:count 0
attr interpolationmode none
attr source packetDropReasonIsQueueOverflow(packetDropped)
attr title "packet drops: queue overflow, count"
scalar projectphase3.R1.ppp[0].ppp.queue packetDropQueueOverflow:sum(packetBytes) 0
attr interpolationmode none
attr source packetDropReasonIsQueueOverflow(packetDropped)
attr title "packet drops: queue overflow, sum(packetBytes)"
scalar projectphase3.R1.ppp[0].ppp.queue packetRemoved:count 0
attr interpolationmode none
attr title "packets removed, count"
scalar projectphase3.R1.ppp[0].ppp.queue packetRemoved:sum(packetBytes) 0
attr interpolationmode none
attr title "packets removed, sum(packetBytes)"
scalar projectphase3.R1.ppp[0].ppp txPk:count 1962
attr interpolationmode none
attr source packetSentToLower
attr title "packets transmitted, count"
scalar projectphase3.R1.ppp[0].ppp txPk:sum(packetBytes) 760654
attr interpolationmode none
attr source packetSentToLower
attr title "packets transmitted, sum(packetBytes)"
scalar projectphase3.R1.ppp[0].ppp rcvdPkFromHl:count 1962
attr interpolationmode none
attr source packetReceivedFromUpper
attr title "packets received from higher layer, count"
scalar projectphase3.R1.ppp[0].ppp rcvdPkFromHl:sum(packetBytes) 746920
attr interpolationmode none
attr source packetReceivedFromUpper
attr title "packets received from higher layer, sum(packetBytes)"
scalar projectphase3.R1.ppp[0].ppp passedUpPk:count 4021
attr interpolationmode none
attr source packetSentToUpper
attr title "packets passed to higher layer, count"
scalar projectphase3.R1.ppp[0].ppp passedUpPk:sum(packetBytes) 1523366
attr interpolationmode none
attr source packetSentToUpper
attr title "packets passed to higher layer, sum(packetBytes)"
scalar projectphase3.R1.ppp[0].ppp packetDropIncorrectlyReceived:count 0
attr interpolationmode none
attr source packetDropReasonIsIncorrectlyReceived(packetDropped)
attr title "packet drop: incorrectly received, count"
scalar projectphase3.R1.ppp[0].ppp packetDropIncorrectlyReceived:sum(packetBytes) 0
attr interpolationmode none
attr source packetDropReasonIsIncorrectlyReceived(packetDropped)
attr title "packet drop: incorrectly received, sum(packetBytes)"
scalar projectphase3.R1.ppp[0].ppp packetDropInterfaceDown:count 0
attr interpolationmode none
attr source packetDropReasonIsInterfaceDown(packetDropped)
attr title "packet drop: interface down, count"
scalar projectphase3.R1.ppp[0].ppp packetDropInterfaceDown:sum(packetBytes) 0
attr interpolationmode none
attr source packetDropReasonIsInterfaceDown(packetDropped)
attr title "packet drop: interface down, sum(packetBytes)"
scalar projectphase3.R1.ppp[0].ppp rxPkOk:count 4021
attr interpolationmode none
attr source rxPkOk
attr title "packets received OK, count"
scalar projectphase3.R1.ppp[0].ppp rxPkOk:sum(packetBytes) 1551513
attr interpolationmode none
attr source rxPkOk
attr title "packets received OK, sum(packetBytes)"
scalar projectphase3.R1.ppp[0].ppp transmissionState:timeavg 0.1521308
attr interpolationmode sample-hold
attr source transmissionStateChanged
attr title "tx state, timeavg"
scalar projectphase3.R1.ppp[1].ppp.queue packetPopped:count 2226
attr interpolationmode none
attr title "packet popped, count"
scalar projectphase3.R1.ppp[1].ppp.queue packetPopped:sum(packetBytes) 794010
attr interpolationmode none
attr title "packet popped, sum(packetBytes)"
statistic projectphase3.R1.ppp[1].ppp.queue queueingTime:histogram
field count 2226
field mean 5.6145125474535
field stddev 3.6119884999867
field min 0
field max 12.708
field sum 12497.904930632
field sqrsum 99198.019605892
attr interpolationmode none
attr source queueingTime(packetPopped)
attr title "queueing times, histogram"
attr unit s
bin	-inf	0
bin	0	156
bin	0.2	47
bin	0.4	40
bin	0.6	39
bin	0.8	32
bin	1	26
bin	1.2	44
bin	1.4	33
bin	1.6	37
bin	1.8	34
bin	2	31
bin	2.2	32
bin	2.4	32
bin	2.6	37
bin	2.8	38
bin	3	33
bin	3.2	33
bin	3.4	33
bin	3.6	29
bin	3.8	32
bin	4	32
bin	4.2	34
bin	4.4	39
bin	4.6	35
bin	4.8	34
bin	5	34
bin	5.2	40
bin	5.4	35
bin	5.6	38
bin	5.8	33
bin	6	36
bin	6.2	38
bin	6.4	38
bin	6.6	40
bin	6.8	35
bin	7	35
bin	7.2	38
bin	7.4	35
bin	7.6	41
bin	7.8	36
bin	8	36
bin	8.2	35
bin	8.4	36
bin	8.6	33
bin	8.8	36
bin	9	38
bin	9.2	34
bin	9.4	36
bin	9.6	38
bin	9.8	41
bin	10	34
bin	10.2	37
bin	10.4	31
bin	10.6	36
bin	10.8	33
bin	11	34
bin	11.2	29
bin	11.4	28
bin	11.6	20
bin	11.8	13
bin	12	7
bin	12.2	8
bin	12.4	6
bin	12.6	3
bin	12.8	0
bin	13	0
bin	13.2	0
bin	13.4	0
bin	13.6	0
bin	13.8	0
bin	14	0
bin	14.2	0
bin	14.4	0
bin	14.6	0
bin	14.8	0
bin	15	0
scalar projectphase3.R1.ppp[1].ppp.queue queueLength:max 72
attr interpolationmode sample-hold
attr source "count(packetPushed) - count(packetPopped) - count(packetRemoved) - count(packetDropped)"
attr title "queue length, max"
scalar projectphase3.R1.ppp[1].ppp.queue queueLength:timeavg 9.9991920800152
attr interpolationmode sample-hold
attr source "count(packetPushed) - count(packetPopped) - count(packetRemoved) - count(packetDropped)"
attr title "queue length, timeavg"
scalar projectphase3.R1.ppp[1].ppp.queue packetPushed:count 2226
attr interpolationmode none
attr title "packet pushed, count"
scalar projectphase3.R1.ppp[1].ppp.queue packetPushed:sum(packetBytes) 794010
attr interpolationmode none
attr title "packet pushed, sum(packetBytes)"
scalar projectphase3.R1.ppp[1].ppp.queue packetDropQueueOverflow:count 0
attr interpolationmode none
attr source packetDropReasonIsQueueOverflow(packetDropped)
attr title "packet drops: queue overflow, count"
scalar projectphase3.R1.ppp[1].ppp.queue packetDropQueueOverflow:sum(packetBytes) 0
attr interpolationmode none
attr source packetDropReasonIsQueueOverflow(packetDropped)
attr title "packet drops: queue overflow, sum(packetBytes)"
scalar projectphase3.R1.ppp[1].ppp.queue packetRemoved:count 0
attr interpolationmode none
attr title "packets removed, count"
scalar projectphase3.R1.ppp[1].ppp.queue packetRemoved:sum(packetBytes) 0
attr interpolationmode none
attr title "packets removed, sum(packetBytes)"
scalar projectphase3.R1.ppp[1].ppp txPk:count 2226
[...]
attr interpolationmode none
attr source packetSentToUpper
attr title "packets passed to higher layer, sum(packetBytes)"
scalar projectphase3.R10.ppp[1].ppp packetDropIncorrectlyReceived:count 0
attr interpolationmode none
attr source packetDropReasonIsIncorrectlyReceived(packetDropped)
attr title "packet drop: incorrectly received, count"
scalar projectphase3.R10.ppp[1].ppp packetDropIncorrectlyReceived:sum(packetBytes) 0
attr interpolationmode none
attr source packetDropReasonIsIncorrectlyReceived(packetDropped)
attr title "packet drop: incorrectly received, sum(packetBytes)"
scalar projectphase3.R10.ppp[1].ppp packetDropInterfaceDown:count 0
attr interpolationmode none
attr source packetDropReasonIsInterfaceDown(packetDropped)
attr title "packet drop: interface down, count"
scalar projectphase3.R10.ppp[1].ppp packetDropInterfaceDown:sum(packetBytes) 0
attr interpolationmode none
attr source packetDropReasonIsInterfaceDown(packetDropped)
attr title "packet drop: interface down, sum(packetBytes)"
scalar projectphase3.R10.ppp[1].ppp rxPkOk:count 243
attr interpolationmode none
attr source rxPkOk
attr title "packets received OK, count"
scalar projectphase3.R10.ppp[1].ppp rxPkOk:sum(packetBytes) 21625
attr interpolationmode none
attr source rxPkOk
attr title "packets received OK, sum(packetBytes)"
scalar projectphase3.R10.ppp[1].ppp transmissionState:timeavg 0.0089028
attr interpolationmode sample-hold
attr source transmissionStateChanged
attr title "tx state, timeavg"
scalar projectphase3.R10.ipv4.ip packetDropAddressResolutionFailed:count 0
attr interpolationmode none
attr source packetDropReasonIsAddressResolutionFailed(packetDropped)
attr title "packet drop: address resolution failed, count"
scalar projectphase3.R10.ipv4.ip packetDropAddressResolutionFailed:sum(packetBytes) 0
attr interpolationmode none
attr source packetDropReasonIsAddressResolutionFailed(packetDropped)
attr title "packet drop: address resolution failed, sum(packetBytes)"
scalar projectphase3.R10.ipv4.ip packetDropHopLimitReached:count 0
attr interpolationmode none
attr source packetDropReasonIsHopLimitReached(packetDropped)
attr title "packet drop: hop limit reached, count"
scalar projectphase3.R10.ipv4.ip packetDropHopLimitReached:sum(packetBytes) 0
attr interpolationmode none
attr source packetDropReasonIsHopLimitReached(packetDropped)
attr title "packet drop: hop limit reached, sum(packetBytes)"
scalar projectphase3.R10.ipv4.ip packetDropForwardingDisabled:count 0
attr interpolationmode none
attr source packetDropReasonIsForwardingDisabled(packetDropped)
attr title "packet drop: forwarding disabled, count"
scalar projectphase3.R10.ipv4.ip packetDropForwardingDisabled:sum(packetBytes) 0
attr interpolationmode none
attr source packetDropReasonIsForwardingDisabled(packetDropped)
attr title "packet drop: forwarding disabled, sum(packetBytes)"
scalar projectphase3.R10.ipv4.ip packetDropNoInterfaceFound:count 0
attr interpolationmode none
attr source packetDropReasonIsNoInterfaceFound(packetDropped)
attr title "packet drop: no interface found, count"
scalar projectphase3.R10.ipv4.ip packetDropNoInterfaceFound:sum(packetBytes) 0
attr interpolationmode none
attr source packetDropReasonIsNoInterfaceFound(packetDropped)
attr title "packet drop: no interface found, sum(packetBytes)"
scalar projectphase3.R10.ipv4.ip packetDropNoRouteFound:count 0
attr interpolationmode none
attr source packetDropReasonIsNoRouteFound(packetDropped)
attr title "packet drop: no route found, count"
scalar projectphase3.R10.ipv4.ip packetDropNoRouteFound:sum(packetBytes) 0
attr interpolationmode none
attr source packetDropReasonIsNoRouteFound(packetDropped)
attr title "packet drop: no route found, sum(packetBytes)"
scalar projectphase3.R10.ipv4.ip packetDropUndefined:count 0
attr interpolationmode none
attr source packetDropReasonIsUndefined(packetDropped)
attr title "packet drop: undefined, count"
scalar projectphase3.R10.ipv4.ip packetDropUndefined:sum(packetBytes) 0
attr interpolationmode none
attr source packetDropReasonIsUndefined(packetDropped)
attr title "packet drop: undefined, sum(packetBytes)"
scalar projectphase3.R10.ipv4.arp arpReplySent:count 0
attr source arpReplySent
attr title "ARP replies sent, count"
scalar projectphase3.R10.ipv4.arp arpReplySent:sum(packetBytes) 0
attr source arpReplySent
attr title "ARP replies sent, sum(packetBytes)"
scalar projectphase3.R10.ipv4.arp arpRequestSent:count 0
attr source arpRequestSent
attr title "ARP request sent, count"
scalar projectphase3.R10.ipv4.arp arpRequestSent:sum(packetBytes) 0
attr source arpRequestSent
attr title "ARP request sent, sum(packetBytes)"
scalar projectphase3.R10.ipv4.arp arpResolutionFailed:count 0
attr title "ARP failed resolutions, count"
scalar projectphase3.R10.ipv4.arp arpResolutionCompleted:count 0
attr title "ARP completed resolutions, count"
scalar projectphase3.R10.ipv4.arp arpResolutionInitiated:count 0
attr title "ARP initiated resolutions, count"
scalar projectphase3.R11.lo[0].lo rcvdPkFromHl:count 0
attr interpolationmode none
attr source packetReceivedFromUpper
attr title "packets received from higher layer, count"
scalar projectphase3.R11.lo[0].lo rcvdPkFromHl:sum(packetBytes) 0
attr interpolationmode none
attr source packetReceivedFromUpper
attr title "packets received from higher layer, sum(packetBytes)"
scalar projectphase3.R11.lo[0].lo passedUpPk:count 0
attr interpolationmode none
attr source packetSentToUpper
attr title "packets passed to higher layer, count"
scalar projectphase3.R11.lo[0].lo passedUpPk:sum(packetBytes) 0
attr interpolationmode none
attr source packetSentToUpper
attr title "packets passed to higher layer, sum(packetBytes)"
scalar projectphase3.R11.ppp[0].ppp.queue packetPopped:count 243
attr interpolationmode none
attr title "packet popped, count"
scalar projectphase3.R11.ppp[0].ppp.queue packetPopped:sum(packetBytes) 19924
attr interpolationmode none
attr title "packet popped, sum(packetBytes)"
statistic projectphase3.R11.ppp[0].ppp.queue queueingTime:histogram
field count 243
field mean 0.022762827615288
field stddev 0.040600397515088
field min 0
field max 0.18425
field sum 5.531367110515
field sqrsum 0.52482048738225
attr interpolationmode none
attr source queueingTime(packetPopped)
attr title "queueing times, histogram"
attr unit s
bin	-inf	0
bin	0	169
bin	0.005	0
bin	0.01	0
bin	0.015	1
bin	0.02	0
bin	0.025	0
bin	0.03	9
bin	0.035	7
bin	0.04	10
bin	0.045	1
bin	0.05	1
bin	0.055	1
bin	0.06	1
bin	0.065	3
bin	0.07	13
bin	0.075	2
bin	0.08	0
bin	0.085	2
bin	0.09	0
bin	0.095	1
bin	0.1	1
bin	0.105	12
bin	0.11	0
bin	0.115	1
bin	0.12	0
bin	0.125	0
bin	0.13	0
bin	0.135	3
bin	0.14	1
bin	0.145	0
bin	0.15	0
bin	0.155	0
bin	0.16	2
bin	0.165	0
bin	0.17	0
bin	0.175	1
bin	0.18	1
bin	0.185	0
bin	0.19	0
bin	0.195	0
bin	0.2	0
bin	0.205	0
bin	0.21	0
bin	0.215	0
bin	0.22	0
bin	0.225	0
scalar projectphase3.R11.ppp[0].ppp.queue queueLength:max 4
attr interpolationmode sample-hold
attr source "count(packetPushed) - count(packetPopped) - count(packetRemoved) - count(packetDropped)"
attr title "queue length, max"
scalar projectphase3.R11.ppp[0].ppp.queue queueLength:timeavg 0.0044254115834438
attr interpolationmode sample-hold
attr source "count(packetPushed) - count(packetPopped) - count(packetRemoved) - count(packetDropped)"
attr title "queue length, timeavg"
scalar projectphase3.R11.ppp[0].ppp.queue packetPushed:count 243
attr interpolationmode none
attr title "packet pushed, count"
scalar projectphase3.R11.ppp[0].ppp.queue packetPushed:sum(packetBytes) 19924
attr interpolationmode none
attr title "packet pushed, sum(packetBytes)"
scalar projectphase3.R11.ppp[0].ppp.queue packetDropQueueOverflow:count 0
attr interpolationmode none
attr source packetDropReasonIsQueueOverflow(packetDropped)
attr title "packet drops: queue overflow, count"
scalar projectphase3.R11.ppp[0].ppp.queue packetDropQueueOverflow:sum(packetBytes) 0
attr interpolationmode none
attr source packetDropReasonIsQueueOverflow(packetDropped)
attr title "packet drops: queue overflow, sum(packetBytes)"
scalar projectphase3.R11.ppp[0].ppp.queue packetRemoved:count 0
attr interpolationmode none
attr title "packets removed, count"
scalar projectphase3.R11.ppp[0].ppp.queue packetRemoved:sum(packetBytes) 0
attr interpolationmode none
attr title "packets removed, sum(packetBytes)"
scalar projectphase3.R11.ppp[0].ppp txPk:count 243
attr interpolationmode none
attr source packetSentToLower
attr title "packets transmitted, count"
scalar projectphase3.R11.ppp[0].ppp txPk:sum(packetBytes) 21625
attr interpolationmode none
attr source packetSentToLower
attr title "packets transmitted, sum(packetBytes)"
scalar projectphase3.R11.ppp[0].ppp rcvdPkFromHl:count 243
attr interpolationmode none
attr source packetReceivedFromUpper
attr title "packets received from higher layer, count"
scalar projectphase3.R11.ppp[0].ppp rcvdPkFromHl:sum(packetBytes) 19924
attr interpolationmode none
attr source packetReceivedFromUpper
attr title "packets received from higher layer, sum(packetBytes)"
scalar projectphase3.R11.ppp[0].ppp passedUpPk:count 243
attr interpolationmode none
attr source packetSentToUpper
attr title "packets passed to higher layer, count"
scalar projectphase3.R11.ppp[0].ppp passedUpPk:sum(packetBytes) 20556
attr interpolationmode none
attr source packetSentToUpper
attr title "packets passed to higher layer, sum(packetBytes)"
scalar projectphase3.R11.ppp[0].ppp packetDropIncorrectlyReceived:count 0
attr interpolationmode none
attr source packetDropReasonIsIncorrectlyReceived(packetDropped)
attr title "packet drop: incorrectly received, count"
scalar projectphase3.R11.ppp[0].ppp packetDropIncorrectlyReceived:sum(packetBytes) 0
attr interpolationmode none
attr source packetDropReasonIsIncorrectlyReceived(packetDropped)
attr title "packet drop: incorrectly received, sum(packetBytes)"
scalar projectphase3.R11.ppp[0].ppp packetDropInterfaceDown:count 0
attr interpolationmode none
attr source packetDropReasonIsInterfaceDown(packetDropped)
attr title "packet drop: interface down, count"
scalar projectphase3.R11.ppp[0].ppp packetDropInterfaceDown:sum(packetBytes) 0
attr interpolationmode none
attr source packetDropReasonIsInterfaceDown(packetDropped)
attr title "packet drop: interface down, sum(packetBytes)"
scalar projectphase3.R11.ppp[0].ppp rxPkOk:count 243
attr interpolationmode none
attr source rxPkOk
attr title "packets received OK, count"
scalar projectphase3.R11.ppp[0].ppp rxPkOk:sum(packetBytes) 22257
attr interpolationmode none
attr source rxPkOk
attr title "packets received OK, sum(packetBytes)"
scalar projectphase3.R11.ppp[0].ppp transmissionState:timeavg 0.00865
attr interpolationmode sample-hold
attr source transmissionStateChanged
attr title "tx state, timeavg"
scalar projectphase3.R11.ppp[1].ppp.queue packetPopped:count 187
attr interpolationmode none
attr title "packet popped, count"
scalar projectphase3.R11.ppp[1].ppp.queue packetPopped:sum(packetBytes) 13704
attr interpolationmode none
attr title "packet popped, sum(packetBytes)"
statistic projectphase3.R11.ppp[1].ppp.queue queueingTime:histogram
field count 187
field mean 0.0025840902832299
field stddev 0.011923771127528
field min 0
field max 0.089751243242
field sum 0.483224882964
field sqrsum 0.027693491854394
attr interpolationmode none
attr source queueingTime(packetPopped)
attr title "queueing times, histogram"
attr unit s
bin	-inf	0
bin	0	176
bin	0.002	0
bin	0.004	0
bin	0.006	0
bin	0.008	0
bin	0.01	0
bin	0.012	0
bin	0.014	0
bin	0.016	2
bin	0.018	1
bin	0.02	0
bin	0.022	0
bin	0.024	1
bin	0.026	0
bin	0.028	1
bin	0.03	0
bin	0.032	0
bin	0.034	1
bin	0.036	0
bin	0.038	0
bin	0.04	0
bin	0.042	0
bin	0.044	0
bin	0.046	1
bin	0.048	0
bin	0.05	0
bin	0.052	1
bin	0.054	0
bin	0.056	0
bin	0.058	0
bin	0.06	0
bin	0.062	0
bin	0.064	1
bin	0.066	0
bin	0.068	0
bin	0.07	0
bin	0.072	0
bin	0.074	0
bin	0.076	0
bin	0.078	0
bin	0.08	0
bin	0.082	1
bin	0.084	0
bin	0.086	0
bin	0.088	1
bin	0.09	0
bin	0.092	0
bin	0.094	0
bin	0.096	0
bin	0.098	0
bin	0.1	0
bin	0.102	0
bin	0.104	0
bin	0.106	0
bin	0.108	0
bin	0.11	0
bin	0.112	0
bin	0.114	0
scalar projectphase3.R11.ppp[1].ppp.queue queueLength:max 5
attr interpolationmode sample-hold
attr source "count(packetPushed) - count(packetPopped) - count(packetRemoved) - count(packetDropped)"
attr title "queue length, max"
scalar projectphase3.R11.ppp[1].ppp.queue queueLength:timeavg 0.00038661177959296
attr interpolationmode sample-hold
attr source "count(packetPushed) - count(packetPopped) - count(packetRemoved) - count(packetDropped)"
attr title "queue length, timeavg"
scalar projectphase3.R11.ppp[1].ppp.queue packetPushed:count 187
attr interpolationmode none
attr title "packet pushed, count"
scalar projectphase3.R11.ppp[1].ppp.queue packetPushed:sum(packetBytes) 13704
attr interpolationmode none
attr title "packet pushed, sum(packetBytes)"
scalar projectphase3.R11.ppp[1].ppp.queue packetDropQueueOverflow:count 0
attr interpolationmode none
attr source packetDropReasonIsQueueOverflow(packetDropped)
attr title "packet drops: queue overflow, count"
scalar projectphase3.R11.ppp[1].ppp.queue packetDropQueueOverflow:sum(packetBytes) 0
attr interpolationmode none
attr source packetDropReasonIsQueueOverflow(packetDropped)
attr title "packet drops: queue overflow, sum(packetBytes)"
scalar projectphase3.R11.ppp[1].ppp.queue packetRemoved:count 0
attr interpolationmode none
attr title "packets removed, count"
scalar projectphase3.R11.ppp[1].ppp.queue packetRemoved:sum(packetBytes) 0
attr interpolationmode none
attr title "packets removed, sum(packetBytes)"
scalar projectphase3.R11.ppp[1].ppp txPk:count 187
attr interpolationmode none
attr source packetSentToLower
attr title "packets transmitted, count"
scalar projectphase3.R11.ppp[1].ppp txPk:sum(packetBytes) 15013
attr interpolationmode none
attr source packetSentToLower
attr title "packets transmitted, sum(packetBytes)"
scalar projectphase3.R11.ppp[1].ppp rcvdPkFromHl:count 187
attr interpolationmode none
attr source packetReceivedFromUpper
attr title "packets received from higher layer, count"
scalar projectphase3.R11.ppp[1].ppp rcvdPkFromHl:sum(packetBytes) 13704
attr interpolationmode none
attr source packetReceivedFromUpper
attr title "packets received from higher layer, sum(packetBytes)"
scalar projectphase3.R11.ppp[1].ppp passedUpPk:count 206
attr interpolationmode none
attr source packetSentToUpper
attr title "packets passed to higher layer, count"
scalar projectphase3.R11.ppp[1].ppp passedUpPk:sum(packetBytes) 18460
attr interpolationmode none
attr source packetSentToUpper
attr title "packets passed to higher layer, sum(packetBytes)"
scalar projectphase3.R11.ppp[1].ppp packetDropIncorrectlyReceived:count 0
attr interpolationmode none
attr source packetDropReasonIsIncorrectlyReceived(packetDropped)
attr title "packet drop: incorrectly received, count"
scalar projectphase3.R11.ppp[1].ppp packetDropIncorrectlyReceived:sum(packetBytes) 0
attr interpolationmode none
attr source packetDropReasonIsIncorrectlyReceived(packetDropped)
attr title "packet drop: incorrectly received, sum(packetBytes)"
scalar projectphase3.R11.ppp[1].ppp packetDropInterfaceDown:count 0
attr interpolationmode none
attr source packetDropReasonIsInterfaceDown(packetDropped)
attr title "packet drop: interface down, count"
scalar projectphase3.R11.ppp[1].ppp packetDropInterfaceDown:sum(packetBytes) 0
attr interpolationmode none
attr source packetDropReasonIsInterfaceDown(packetDropped)
attr title "packet drop: interface down, sum(packetBytes)"
scalar projectphase3.R11.ppp[1].ppp rxPkOk:count 206
attr interpolationmode none
attr source rxPkOk
attr title "packets received OK, count"
scalar projectphase3.R11.ppp[1].ppp rxPkOk:sum(packetBytes) 19902
attr interpolationmode none
attr source rxPkOk
attr title "packets received OK, sum(packetBytes)"
scalar projectphase3.R11.ppp[1].ppp transmissionState:timeavg 0.0030026
attr interpolationmode sample-hold
attr source transmissionStateChanged
attr title "tx state, timeavg"
scalar projectphase3.R11.ipv4.ip packetDropAddressResolutionFailed:count 0
attr interpolationmode none
attr source packetDropReasonIsAddressResolutionFailed(packetDropped)
attr title "packet drop: address resolution failed, count"
scalar projectphase3.R11.ipv4.ip packetDropAddressResolutionFailed:sum(packetBytes) 0
attr interpolationmode none
attr source packetDropReasonIsAddressResolutionFailed(packetDropped)
attr title "packet drop: address resolution failed, sum(packetBytes)"
scalar projectphase3.R11.ipv4.ip packetDropHopLimitReached:count 0
attr interpolationmode none
attr source packetDropReasonIsHopLimitReached(packetDropped)
attr title "packet drop: hop limit reached, count"
scalar projectphase3.R11.ipv4.ip packetDropHopLimitReached:sum(packetBytes) 0
attr interpolationmode none
attr source packetDropReasonIsHopLimitReached(packetDropped)
attr title "packet drop: hop limit reached, sum(packetBytes)"
scalar projectphase3.R11.ipv4.ip packetDropForwardingDisabled:count 0
attr interpolationmode none
attr source packetDropReasonIsForwardingDisabled(packetDropped)
attr title "packet drop: forwarding disabled, count"
scalar projectphase3.R11.ipv4.ip packetDropForwardingDisabled:sum(packetBytes) 0
attr interpolationmode none
attr source packetDropReasonIsForwardingDisabled(packetDropped)
attr title "packet drop: forwarding disabled, sum(packetBytes)"
scalar projectphase3.R11.ipv4.ip packetDropNoInterfaceFound:count 0
attr interpolationmode none
attr source packetDropReasonIsNoInterfaceFound(packetDropped)
attr title "packet drop: no interface found, count"
scalar projectphase3.R11.ipv4.ip packetDropNoInterfaceFound:sum(packetBytes) 0
attr interpolationmode none
attr source packetDropReasonIsNoInterfaceFound(packetDropped)
attr title "packet drop: no interface found, sum(packetBytes)"
scalar projectphase3.R11.ipv4.ip packetDropNoRouteFound:count 0
attr interpolationmode none
attr source packetDropReasonIsNoRouteFound(packetDropped)
attr title "packet drop: no route found, count"
scalar projectphase3.R11.ipv4.ip packetDropNoRouteFound:sum(packetBytes) 0
attr interpolationmode none
attr source packetDropReasonIsNoRouteFound(packetDropped)
attr title "packet drop: no route found, sum(packetBytes)"
scalar projectphase3.R11.ipv4.ip packetDropUndefined:count 0
attr interpolationmode none
attr source packetDropReasonIsUndefined(packetDropped)
attr title "packet drop: undefined, count"
scalar projectphase3.R11.ipv4.ip packetDropUndefined:sum(packetBytes) 0
attr interpolationmode none
attr source packetDropReasonIsUndefined(packetDropped)
attr title "packet drop: undefined, sum(packetBytes)"
scalar projectphase3.R11.ipv4.arp arpReplySent:count 0
attr source arpReplySent
attr title "ARP replies sent, count"
scalar projectphase3.R11.ipv4.arp arpReplySent:sum(packetBytes) 0
attr source arpReplySent
attr title "ARP replies sent, sum(packetBytes)"
scalar projectphase3.R11.ipv4.arp arpRequestSent:count 0
attr source arpRequestSent
attr title "ARP request sent, count"
scalar projectphase3.R11.ipv4.arp arpRequestSent:sum(packetBytes) 0
attr source arpRequestSent
attr title "ARP request sent, sum(packetBytes)"
scalar projectphase3.R11.ipv4.arp arpResolutionFailed:count 0
attr title "ARP failed resolutions, count"
scalar projectphase3.R11.ipv4.arp arpResolutionCompleted:count 0
attr title "ARP completed resolutions, count"
scalar projectphase3.R11.ipv4.arp arpResolutionInitiated:count 0
attr title "ARP initiated resolutions, count"

